/*---------------------------------------------------------------------------*\
| =========                 |                                                 |
| \\      /  F ield         | OpenFOAM: The Open Source CFD Toolbox           |
|  \\    /   O peration     | Version:  2412                                  |
|   \\  /    A nd           | Website:  www.openfoam.com                      |
|    \\/     M anipulation  |                                                 |
\*---------------------------------------------------------------------------*/
Build  : _45e7c4a0-20241224 OPENFOAM=2412 version=2412
Arch   : "LSB;label=32;scalar=64"
Exec   : icoFoam
Date   : Jan 27 2025
Time   : 11:44:44
Host   : enzo-palma-X470GTQ
PID    : 15123
I/O    : uncollated
Case   : /home/enzo-palma/Openfoam/studyCases/cilindroExemplo
nProcs : 1
trapFpe: Floating point exception trapping enabled (FOAM_SIGFPE).
fileModificationChecking : Monitoring run-time modified files using timeStampMaster (fileModificationSkew 5, maxFileModificationPolls 20)
allowSystemOperations : Allowing user-supplied system call operations

// * * * * * * * * * * * * * * * * * * * * * * * * * * * * * * * * * * * * * //
Create time

Create mesh for time = 0


PISO: Operating solver in PISO mode

Reading transportProperties

Reading field p

Reading field U

Reading/calculating face flux field phi


Starting time loop

Time = 0.005

Courant Number mean: 0 max: 0
smoothSolver:  Solving for Ux, Initial residual = 1, Final residual = 7.053e-06, No Iterations 14
smoothSolver:  Solving for Uy, Initial residual = 0, Final residual = 0, No Iterations 0
smoothSolver:  Solving for Uz, Initial residual = 0, Final residual = 0, No Iterations 0
DICPCG:  Solving for p, Initial residual = 1, Final residual = 0.0470866, No Iterations 12
time step continuity errors : sum local = 1.59628e-05, global = 7.66222e-21, cumulative = 7.66222e-21
DICPCG:  Solving for p, Initial residual = 0.551896, Final residual = 9.37609e-07, No Iterations 97
time step continuity errors : sum local = 5.49164e-10, global = -1.08272e-13, cumulative = -1.08272e-13
ExecutionTime = 0.22 s  ClockTime = 0 s

Time = 0.01

Courant Number mean: 0.00276231 max: 0.153543
smoothSolver:  Solving for Ux, Initial residual = 0.215288, Final residual = 8.90237e-06, No Iterations 12
smoothSolver:  Solving for Uy, Initial residual = 0.346123, Final residual = 9.51831e-06, No Iterations 12
smoothSolver:  Solving for Uz, Initial residual = 0.28928, Final residual = 9.88855e-06, No Iterations 13
DICPCG:  Solving for p, Initial residual = 0.451661, Final residual = 0.0215893, No Iterations 9
time step continuity errors : sum local = 1.06495e-05, global = -1.60185e-12, cumulative = -1.71012e-12
DICPCG:  Solving for p, Initial residual = 0.289352, Final residual = 5.67215e-07, No Iterations 95
time step continuity errors : sum local = 2.54151e-10, global = 4.9685e-13, cumulative = -1.21327e-12
ExecutionTime = 0.29 s  ClockTime = 0 s

Time = 0.015

Courant Number mean: 0.00449437 max: 0.223442
smoothSolver:  Solving for Ux, Initial residual = 0.122364, Final residual = 8.65038e-06, No Iterations 11
smoothSolver:  Solving for Uy, Initial residual = 0.107727, Final residual = 7.65351e-06, No Iterations 11
smoothSolver:  Solving for Uz, Initial residual = 0.133016, Final residual = 4.90369e-06, No Iterations 13
DICPCG:  Solving for p, Initial residual = 0.186932, Final residual = 0.00920132, No Iterations 40
time step continuity errors : sum local = 3.8879e-06, global = 5.60228e-09, cumulative = 5.60107e-09
DICPCG:  Solving for p, Initial residual = 0.117284, Final residual = 8.0433e-07, No Iterations 93
time step continuity errors : sum local = 3.50369e-10, global = -2.67364e-12, cumulative = 5.5984e-09
ExecutionTime = 0.38 s  ClockTime = 0 s

Time = 0.02

Courant Number mean: 0.00575367 max: 0.281157
smoothSolver:  Solving for Ux, Initial residual = 0.0680163, Final residual = 5.8189e-06, No Iterations 11
smoothSolver:  Solving for Uy, Initial residual = 0.0666216, Final residual = 5.57339e-06, No Iterations 11
smoothSolver:  Solving for Uz, Initial residual = 0.095511, Final residual = 7.62574e-06, No Iterations 12
DICPCG:  Solving for p, Initial residual = 0.0848223, Final residual = 0.003976, No Iterations 66
time step continuity errors : sum local = 1.74206e-06, global = -5.78594e-08, cumulative = -5.2261e-08
DICPCG:  Solving for p, Initial residual = 0.0494491, Final residual = 8.48897e-07, No Iterations 91
time step continuity errors : sum local = 4.14242e-10, global = -4.37408e-12, cumulative = -5.22654e-08
ExecutionTime = 0.47 s  ClockTime = 0 s

Time = 0.025

Courant Number mean: 0.00664902 max: 0.319212
smoothSolver:  Solving for Ux, Initial residual = 0.0452308, Final residual = 8.65288e-06, No Iterations 10
smoothSolver:  Solving for Uy, Initial residual = 0.0415601, Final residual = 7.75965e-06, No Iterations 10
smoothSolver:  Solving for Uz, Initial residual = 0.0571472, Final residual = 9.58064e-06, No Iterations 11
DICPCG:  Solving for p, Initial residual = 0.0589524, Final residual = 0.00244984, No Iterations 16
time step continuity errors : sum local = 1.03294e-06, global = 4.89591e-08, cumulative = -3.30623e-09
DICPCG:  Solving for p, Initial residual = 0.0402001, Final residual = 7.87315e-07, No Iterations 91
time step continuity errors : sum local = 3.34017e-10, global = -1.52532e-12, cumulative = -3.30776e-09
ExecutionTime = 0.53 s  ClockTime = 0 s

Time = 0.03

Courant Number mean: 0.00730722 max: 0.347139
smoothSolver:  Solving for Ux, Initial residual = 0.0314552, Final residual = 6.22297e-06, No Iterations 10
smoothSolver:  Solving for Uy, Initial residual = 0.0291031, Final residual = 5.2149e-06, No Iterations 10
smoothSolver:  Solving for Uz, Initial residual = 0.0438962, Final residual = 7.43809e-06, No Iterations 11
DICPCG:  Solving for p, Initial residual = 0.0394327, Final residual = 0.00184604, No Iterations 66
time step continuity errors : sum local = 7.92023e-07, global = -2.62479e-08, cumulative = -2.95556e-08
DICPCG:  Solving for p, Initial residual = 0.0265437, Final residual = 7.99269e-07, No Iterations 90
time step continuity errors : sum local = 3.59242e-10, global = -2.38116e-12, cumulative = -2.9558e-08
ExecutionTime = 0.62 s  ClockTime = 0 s

Time = 0.035

Courant Number mean: 0.00779824 max: 0.367081
smoothSolver:  Solving for Ux, Initial residual = 0.0238536, Final residual = 4.6688e-06, No Iterations 10
smoothSolver:  Solving for Uy, Initial residual = 0.021288, Final residual = 8.47528e-06, No Iterations 9
smoothSolver:  Solving for Uz, Initial residual = 0.0301896, Final residual = 5.06752e-06, No Iterations 11
DICPCG:  Solving for p, Initial residual = 0.0315285, Final residual = 0.00146797, No Iterations 14
time step continuity errors : sum local = 6.22062e-07, global = 3.88187e-08, cumulative = 9.26072e-09
DICPCG:  Solving for p, Initial residual = 0.0221731, Final residual = 6.58198e-07, No Iterations 90
time step continuity errors : sum local = 2.79763e-10, global = -1.06424e-12, cumulative = 9.25966e-09
ExecutionTime = 0.69 s  ClockTime = 0 s

Time = 0.04

Courant Number mean: 0.00816926 max: 0.381783
smoothSolver:  Solving for Ux, Initial residual = 0.0184003, Final residual = 8.10288e-06, No Iterations 9
smoothSolver:  Solving for Uy, Initial residual = 0.0157016, Final residual = 6.17016e-06, No Iterations 9
smoothSolver:  Solving for Uz, Initial residual = 0.0239404, Final residual = 8.68724e-06, No Iterations 10
DICPCG:  Solving for p, Initial residual = 0.0243222, Final residual = 0.00114961, No Iterations 63
time step continuity errors : sum local = 4.92492e-07, global = -4.40034e-08, cumulative = -3.47437e-08
DICPCG:  Solving for p, Initial residual = 0.0170081, Final residual = 7.08324e-07, No Iterations 89
time step continuity errors : sum local = 3.09076e-10, global = -1.53569e-12, cumulative = -3.47453e-08
ExecutionTime = 0.77 s  ClockTime = 1 s

Time = 0.045

Courant Number mean: 0.00845365 max: 0.392669
smoothSolver:  Solving for Ux, Initial residual = 0.0143549, Final residual = 6.31346e-06, No Iterations 9
smoothSolver:  Solving for Uy, Initial residual = 0.0121035, Final residual = 4.97469e-06, No Iterations 9
smoothSolver:  Solving for Uz, Initial residual = 0.0179547, Final residual = 6.51615e-06, No Iterations 10
DICPCG:  Solving for p, Initial residual = 0.0195753, Final residual = 0.000886351, No Iterations 23
time step continuity errors : sum local = 3.78127e-07, global = 3.8112e-08, cumulative = 3.36676e-09
DICPCG:  Solving for p, Initial residual = 0.013668, Final residual = 8.268e-07, No Iterations 88
time step continuity errors : sum local = 3.53613e-10, global = -2.08647e-12, cumulative = 3.36467e-09
ExecutionTime = 0.84 s  ClockTime = 1 s

Time = 0.05

Courant Number mean: 0.00867349 max: 0.400839
smoothSolver:  Solving for Ux, Initial residual = 0.0113801, Final residual = 5.07025e-06, No Iterations 9
smoothSolver:  Solving for Uy, Initial residual = 0.00948703, Final residual = 8.98263e-06, No Iterations 8
smoothSolver:  Solving for Uz, Initial residual = 0.0146833, Final residual = 5.38165e-06, No Iterations 10
DICPCG:  Solving for p, Initial residual = 0.0153297, Final residual = 0.000707413, No Iterations 18
time step continuity errors : sum local = 3.04705e-07, global = -1.39574e-07, cumulative = -1.36209e-07
DICPCG:  Solving for p, Initial residual = 0.0105855, Final residual = 9.05815e-07, No Iterations 87
time step continuity errors : sum local = 3.90593e-10, global = -4.22019e-12, cumulative = -1.36213e-07
ExecutionTime = 0.91 s  ClockTime = 1 s

Time = 0.055

Courant Number mean: 0.00884581 max: 0.407029
smoothSolver:  Solving for Ux, Initial residual = 0.00900792, Final residual = 9.02145e-06, No Iterations 8
smoothSolver:  Solving for Uy, Initial residual = 0.00758656, Final residual = 7.21212e-06, No Iterations 8
smoothSolver:  Solving for Uz, Initial residual = 0.0138166, Final residual = 5.27879e-06, No Iterations 10
DICPCG:  Solving for p, Initial residual = 0.0119821, Final residual = 0.000453696, No Iterations 72
time step continuity errors : sum local = 1.98058e-07, global = 7.63356e-09, cumulative = -1.2858e-07
DICPCG:  Solving for p, Initial residual = 0.00779515, Final residual = 6.84953e-07, No Iterations 87
time step continuity errors : sum local = 3.15308e-10, global = -3.67897e-12, cumulative = -1.28583e-07
ExecutionTime = 1 s  ClockTime = 1 s

Time = 0.06

Courant Number mean: 0.00898146 max: 0.411756
smoothSolver:  Solving for Ux, Initial residual = 0.00729257, Final residual = 7.45648e-06, No Iterations 8
smoothSolver:  Solving for Uy, Initial residual = 0.00643829, Final residual = 6.50008e-06, No Iterations 8
smoothSolver:  Solving for Uz, Initial residual = 0.00925852, Final residual = 7.26801e-06, No Iterations 9
DICPCG:  Solving for p, Initial residual = 0.00969153, Final residual = 0.000442155, No Iterations 17
time step continuity errors : sum local = 1.90764e-07, global = -4.50518e-08, cumulative = -1.73635e-07
DICPCG:  Solving for p, Initial residual = 0.00656225, Final residual = 8.85478e-07, No Iterations 85
time step continuity errors : sum local = 3.82438e-10, global = -9.24825e-12, cumulative = -1.73644e-07
ExecutionTime = 1.07 s  ClockTime = 1 s

Time = 0.065

Courant Number mean: 0.00908863 max: 0.415398
smoothSolver:  Solving for Ux, Initial residual = 0.00587765, Final residual = 6.08188e-06, No Iterations 8
smoothSolver:  Solving for Uy, Initial residual = 0.00525817, Final residual = 5.3272e-06, No Iterations 8
smoothSolver:  Solving for Uz, Initial residual = 0.0080595, Final residual = 6.4282e-06, No Iterations 9
DICPCG:  Solving for p, Initial residual = 0.00789437, Final residual = 0.000376982, No Iterations 65
time step continuity errors : sum local = 1.63023e-07, global = -1.22492e-09, cumulative = -1.74869e-07
DICPCG:  Solving for p, Initial residual = 0.0052926, Final residual = 7.02104e-07, No Iterations 86
time step continuity errors : sum local = 3.09767e-10, global = -4.45362e-12, cumulative = -1.74874e-07
ExecutionTime = 1.15 s  ClockTime = 1 s

Time = 0.07

Courant Number mean: 0.00917511 max: 0.418226
smoothSolver:  Solving for Ux, Initial residual = 0.00481304, Final residual = 5.11243e-06, No Iterations 8
smoothSolver:  Solving for Uy, Initial residual = 0.004521, Final residual = 4.85823e-06, No Iterations 8
smoothSolver:  Solving for Uz, Initial residual = 0.00617572, Final residual = 4.89123e-06, No Iterations 9
DICPCG:  Solving for p, Initial residual = 0.00650039, Final residual = 0.000296405, No Iterations 24
time step continuity errors : sum local = 1.28231e-07, global = -8.0953e-09, cumulative = -1.82969e-07
DICPCG:  Solving for p, Initial residual = 0.00444028, Final residual = 7.21752e-07, No Iterations 85
time step continuity errors : sum local = 3.1253e-10, global = -5.80563e-12, cumulative = -1.82975e-07
ExecutionTime = 1.22 s  ClockTime = 1 s

Time = 0.075

Courant Number mean: 0.00924443 max: 0.420435
smoothSolver:  Solving for Ux, Initial residual = 0.00395242, Final residual = 9.66024e-06, No Iterations 7
smoothSolver:  Solving for Uy, Initial residual = 0.00371465, Final residual = 9.02027e-06, No Iterations 7
smoothSolver:  Solving for Uz, Initial residual = 0.00523218, Final residual = 8.95126e-06, No Iterations 8
DICPCG:  Solving for p, Initial residual = 0.00529581, Final residual = 0.000201162, No Iterations 71
time step continuity errors : sum local = 8.69332e-08, global = 1.58334e-09, cumulative = -1.81392e-07
DICPCG:  Solving for p, Initial residual = 0.00356249, Final residual = 8.22045e-07, No Iterations 84
time step continuity errors : sum local = 3.58982e-10, global = -7.49711e-12, cumulative = -1.81399e-07
ExecutionTime = 1.3 s  ClockTime = 1 s

Time = 0.08

Courant Number mean: 0.00930087 max: 0.42217
smoothSolver:  Solving for Ux, Initial residual = 0.0032635, Final residual = 8.1846e-06, No Iterations 7
smoothSolver:  Solving for Uy, Initial residual = 0.00316451, Final residual = 7.91465e-06, No Iterations 7
smoothSolver:  Solving for Uz, Initial residual = 0.00416292, Final residual = 7.10538e-06, No Iterations 8
DICPCG:  Solving for p, Initial residual = 0.00426059, Final residual = 0.00019945, No Iterations 15
time step continuity errors : sum local = 8.64594e-08, global = -3.9005e-09, cumulative = -1.853e-07
DICPCG:  Solving for p, Initial residual = 0.0028995, Final residual = 7.54254e-07, No Iterations 84
time step continuity errors : sum local = 3.27152e-10, global = -6.06247e-12, cumulative = -1.85306e-07
ExecutionTime = 1.36 s  ClockTime = 1 s

Time = 0.085

Courant Number mean: 0.00934671 max: 0.423541
smoothSolver:  Solving for Ux, Initial residual = 0.00269516, Final residual = 6.91059e-06, No Iterations 7
smoothSolver:  Solving for Uy, Initial residual = 0.00262257, Final residual = 6.61038e-06, No Iterations 7
smoothSolver:  Solving for Uz, Initial residual = 0.00355282, Final residual = 6.0733e-06, No Iterations 8
DICPCG:  Solving for p, Initial residual = 0.00351824, Final residual = 0.000170818, No Iterations 45
time step continuity errors : sum local = 7.40465e-08, global = 9.64235e-09, cumulative = -1.75663e-07
DICPCG:  Solving for p, Initial residual = 0.00240047, Final residual = 6.55893e-07, No Iterations 84
time step continuity errors : sum local = 2.84774e-10, global = -3.28679e-12, cumulative = -1.75667e-07
ExecutionTime = 1.43 s  ClockTime = 1 s

Time = 0.09

Courant Number mean: 0.00938435 max: 0.424631
smoothSolver:  Solving for Ux, Initial residual = 0.00226211, Final residual = 5.91319e-06, No Iterations 7
smoothSolver:  Solving for Uy, Initial residual = 0.00221911, Final residual = 5.68026e-06, No Iterations 7
smoothSolver:  Solving for Uz, Initial residual = 0.00312258, Final residual = 5.41545e-06, No Iterations 8
DICPCG:  Solving for p, Initial residual = 0.0029253, Final residual = 0.000106122, No Iterations 72
time step continuity errors : sum local = 4.61506e-08, global = 1.82957e-09, cumulative = -1.73837e-07
DICPCG:  Solving for p, Initial residual = 0.00196833, Final residual = 8.3672e-07, No Iterations 83
time step continuity errors : sum local = 3.64035e-10, global = -6.41224e-12, cumulative = -1.73843e-07
ExecutionTime = 1.51 s  ClockTime = 1 s

Time = 0.095

Courant Number mean: 0.00941521 max: 0.4255
smoothSolver:  Solving for Ux, Initial residual = 0.00191276, Final residual = 5.05639e-06, No Iterations 7
smoothSolver:  Solving for Uy, Initial residual = 0.00188032, Final residual = 4.88587e-06, No Iterations 7
smoothSolver:  Solving for Uz, Initial residual = 0.00245883, Final residual = 9.07671e-06, No Iterations 7
DICPCG:  Solving for p, Initial residual = 0.00237741, Final residual = 0.000116334, No Iterations 15
time step continuity errors : sum local = 5.05275e-08, global = 2.85733e-09, cumulative = -1.70986e-07
DICPCG:  Solving for p, Initial residual = 0.00160421, Final residual = 9.72594e-07, No Iterations 81
time step continuity errors : sum local = 4.22568e-10, global = -2.29575e-12, cumulative = -1.70988e-07
ExecutionTime = 1.57 s  ClockTime = 1 s

Time = 0.1

Courant Number mean: 0.00944066 max: 0.426197
smoothSolver:  Solving for Ux, Initial residual = 0.00161592, Final residual = 9.65606e-06, No Iterations 6
smoothSolver:  Solving for Uy, Initial residual = 0.00156434, Final residual = 9.04946e-06, No Iterations 6
smoothSolver:  Solving for Uz, Initial residual = 0.00214457, Final residual = 7.94601e-06, No Iterations 7
DICPCG:  Solving for p, Initial residual = 0.00196243, Final residual = 7.88942e-05, No Iterations 65
time step continuity errors : sum local = 3.43119e-08, global = -2.01864e-09, cumulative = -1.73007e-07
DICPCG:  Solving for p, Initial residual = 0.0013338, Final residual = 9.38497e-07, No Iterations 82
time step continuity errors : sum local = 4.07169e-10, global = -5.00448e-12, cumulative = -1.73012e-07
ExecutionTime = 1.69 s  ClockTime = 1 s

Time = 0.105

Courant Number mean: 0.00946175 max: 0.426757
smoothSolver:  Solving for Ux, Initial residual = 0.00138353, Final residual = 8.33381e-06, No Iterations 6
smoothSolver:  Solving for Uy, Initial residual = 0.00133139, Final residual = 7.81386e-06, No Iterations 6
smoothSolver:  Solving for Uz, Initial residual = 0.00176633, Final residual = 6.55043e-06, No Iterations 7
DICPCG:  Solving for p, Initial residual = 0.00165266, Final residual = 8.03906e-05, No Iterations 17
time step continuity errors : sum local = 3.49527e-08, global = 3.51261e-09, cumulative = -1.69499e-07
DICPCG:  Solving for p, Initial residual = 0.00108793, Final residual = 7.72601e-07, No Iterations 82
time step continuity errors : sum local = 3.35999e-10, global = -5.30925e-12, cumulative = -1.69505e-07
ExecutionTime = 1.75 s  ClockTime = 2 s

Time = 0.11

Courant Number mean: 0.00947924 max: 0.42721
smoothSolver:  Solving for Ux, Initial residual = 0.00117456, Final residual = 7.09665e-06, No Iterations 6
smoothSolver:  Solving for Uy, Initial residual = 0.00110524, Final residual = 6.46643e-06, No Iterations 6
smoothSolver:  Solving for Uz, Initial residual = 0.00153701, Final residual = 5.70636e-06, No Iterations 7
DICPCG:  Solving for p, Initial residual = 0.00138622, Final residual = 4.87456e-05, No Iterations 72
time step continuity errors : sum local = 2.12136e-08, global = 5.69316e-10, cumulative = -1.68935e-07
DICPCG:  Solving for p, Initial residual = 0.000917708, Final residual = 8.26079e-07, No Iterations 81
time step continuity errors : sum local = 3.5888e-10, global = -4.46606e-12, cumulative = -1.6894e-07
ExecutionTime = 1.84 s  ClockTime = 2 s

Time = 0.115

Courant Number mean: 0.0094938 max: 0.427578
smoothSolver:  Solving for Ux, Initial residual = 0.0010027, Final residual = 6.10106e-06, No Iterations 6
smoothSolver:  Solving for Uy, Initial residual = 0.000942342, Final residual = 5.56028e-06, No Iterations 6
smoothSolver:  Solving for Uz, Initial residual = 0.00126622, Final residual = 4.69833e-06, No Iterations 7
DICPCG:  Solving for p, Initial residual = 0.00114534, Final residual = 5.57487e-05, No Iterations 17
time step continuity errors : sum local = 2.42569e-08, global = 1.18974e-09, cumulative = -1.6775e-07
DICPCG:  Solving for p, Initial residual = 0.000754824, Final residual = 7.60283e-07, No Iterations 80
time step continuity errors : sum local = 3.3086e-10, global = 1.58027e-12, cumulative = -1.67749e-07
ExecutionTime = 1.89 s  ClockTime = 2 s

Time = 0.12

Courant Number mean: 0.00950597 max: 0.427876
smoothSolver:  Solving for Ux, Initial residual = 0.000852887, Final residual = 5.20613e-06, No Iterations 6
smoothSolver:  Solving for Uy, Initial residual = 0.000783637, Final residual = 4.60671e-06, No Iterations 6
smoothSolver:  Solving for Uz, Initial residual = 0.00110167, Final residual = 8.84311e-06, No Iterations 6
DICPCG:  Solving for p, Initial residual = 0.000970641, Final residual = 3.81385e-05, No Iterations 72
time step continuity errors : sum local = 1.66032e-08, global = 4.89436e-10, cumulative = -1.67259e-07
DICPCG:  Solving for p, Initial residual = 0.000639417, Final residual = 9.71172e-07, No Iterations 80
time step continuity errors : sum local = 4.22449e-10, global = -3.07241e-12, cumulative = -1.67262e-07
ExecutionTime = 1.97 s  ClockTime = 2 s

Time = 0.125

Courant Number mean: 0.00951615 max: 0.42812
smoothSolver:  Solving for Ux, Initial residual = 0.000728292, Final residual = 4.47404e-06, No Iterations 6
smoothSolver:  Solving for Uy, Initial residual = 0.000667454, Final residual = 8.86162e-06, No Iterations 5
smoothSolver:  Solving for Uz, Initial residual = 0.000920847, Final residual = 7.40411e-06, No Iterations 6
DICPCG:  Solving for p, Initial residual = 0.000814538, Final residual = 4.05042e-05, No Iterations 17
time step continuity errors : sum local = 1.76327e-08, global = 6.22627e-10, cumulative = -1.6664e-07
DICPCG:  Solving for p, Initial residual = 0.000535348, Final residual = 9.67972e-07, No Iterations 70
time step continuity errors : sum local = 4.21429e-10, global = -1.03478e-11, cumulative = -1.6665e-07
ExecutionTime = 2.03 s  ClockTime = 2 s

Time = 0.13

Courant Number mean: 0.00952467 max: 0.428319
smoothSolver:  Solving for Ux, Initial residual = 0.000620475, Final residual = 8.64629e-06, No Iterations 5
smoothSolver:  Solving for Uy, Initial residual = 0.000556492, Final residual = 7.37711e-06, No Iterations 5
smoothSolver:  Solving for Uz, Initial residual = 0.000801503, Final residual = 6.44615e-06, No Iterations 6
DICPCG:  Solving for p, Initial residual = 0.000678384, Final residual = 3.08217e-05, No Iterations 47
time step continuity errors : sum local = 1.34222e-08, global = -3.33108e-09, cumulative = -1.69981e-07
DICPCG:  Solving for p, Initial residual = 0.000446473, Final residual = 7.79189e-07, No Iterations 80
time step continuity errors : sum local = 3.39323e-10, global = -8.92472e-13, cumulative = -1.69982e-07
ExecutionTime = 2.09 s  ClockTime = 2 s

Time = 0.135

Courant Number mean: 0.00953184 max: 0.428482
smoothSolver:  Solving for Ux, Initial residual = 0.000531502, Final residual = 7.45189e-06, No Iterations 5
smoothSolver:  Solving for Uy, Initial residual = 0.000470512, Final residual = 6.26809e-06, No Iterations 5
smoothSolver:  Solving for Uz, Initial residual = 0.000717447, Final residual = 5.82245e-06, No Iterations 6
DICPCG:  Solving for p, Initial residual = 0.000576952, Final residual = 2.0784e-05, No Iterations 72
time step continuity errors : sum local = 9.04766e-09, global = 3.37481e-10, cumulative = -1.69644e-07
DICPCG:  Solving for p, Initial residual = 0.000375508, Final residual = 7.38604e-07, No Iterations 79
time step continuity errors : sum local = 3.22132e-10, global = 7.24447e-14, cumulative = -1.69644e-07
ExecutionTime = 2.17 s  ClockTime = 2 s

Time = 0.14

Courant Number mean: 0.00953788 max: 0.428617
smoothSolver:  Solving for Ux, Initial residual = 0.000454056, Final residual = 6.39194e-06, No Iterations 5
smoothSolver:  Solving for Uy, Initial residual = 0.000397333, Final residual = 5.29983e-06, No Iterations 5
smoothSolver:  Solving for Uz, Initial residual = 0.000580607, Final residual = 4.67692e-06, No Iterations 6
DICPCG:  Solving for p, Initial residual = 0.000478146, Final residual = 2.20011e-05, No Iterations 17
time step continuity errors : sum local = 9.58276e-09, global = -8.96332e-10, cumulative = -1.70541e-07
DICPCG:  Solving for p, Initial residual = 0.000310488, Final residual = 7.17312e-07, No Iterations 78
time step continuity errors : sum local = 3.12448e-10, global = 1.22923e-12, cumulative = -1.70539e-07
ExecutionTime = 2.22 s  ClockTime = 2 s

Time = 0.145

Courant Number mean: 0.00954296 max: 0.428728
smoothSolver:  Solving for Ux, Initial residual = 0.000387629, Final residual = 5.47074e-06, No Iterations 5
smoothSolver:  Solving for Uy, Initial residual = 0.000331859, Final residual = 4.41254e-06, No Iterations 5
smoothSolver:  Solving for Uz, Initial residual = 0.000508142, Final residual = 8.90037e-06, No Iterations 5
DICPCG:  Solving for p, Initial residual = 0.00041112, Final residual = 1.63258e-05, No Iterations 72
time step continuity errors : sum local = 7.11059e-09, global = 2.7273e-10, cumulative = -1.70267e-07
DICPCG:  Solving for p, Initial residual = 0.000267364, Final residual = 8.35201e-07, No Iterations 78
time step continuity errors : sum local = 3.63946e-10, global = 5.7878e-13, cumulative = -1.70266e-07
ExecutionTime = 2.3 s  ClockTime = 2 s

Time = 0.15

Courant Number mean: 0.00954725 max: 0.428819
smoothSolver:  Solving for Ux, Initial residual = 0.000331615, Final residual = 4.70113e-06, No Iterations 5
smoothSolver:  Solving for Uy, Initial residual = 0.000282057, Final residual = 8.51998e-06, No Iterations 4
smoothSolver:  Solving for Uz, Initial residual = 0.000426704, Final residual = 7.48242e-06, No Iterations 5
DICPCG:  Solving for p, Initial residual = 0.000346909, Final residual = 1.67207e-05, No Iterations 22
time step continuity errors : sum local = 7.28406e-09, global = -3.15127e-10, cumulative = -1.70581e-07
DICPCG:  Solving for p, Initial residual = 0.000226816, Final residual = 9.45123e-07, No Iterations 60
time step continuity errors : sum local = 4.11739e-10, global = -4.56877e-11, cumulative = -1.70627e-07
ExecutionTime = 2.34 s  ClockTime = 2 s

Time = 0.155

Courant Number mean: 0.00955088 max: 0.428895
smoothSolver:  Solving for Ux, Initial residual = 0.000284267, Final residual = 9.20479e-06, No Iterations 4
smoothSolver:  Solving for Uy, Initial residual = 0.00023844, Final residual = 7.21948e-06, No Iterations 4
smoothSolver:  Solving for Uz, Initial residual = 0.000371234, Final residual = 6.51278e-06, No Iterations 5
DICPCG:  Solving for p, Initial residual = 0.000285777, Final residual = 1.39884e-05, No Iterations 35
time step continuity errors : sum local = 6.09412e-09, global = 4.90688e-10, cumulative = -1.70136e-07
DICPCG:  Solving for p, Initial residual = 0.000181757, Final residual = 8.92219e-07, No Iterations 49
time step continuity errors : sum local = 3.88722e-10, global = 4.38289e-11, cumulative = -1.70092e-07
ExecutionTime = 2.39 s  ClockTime = 2 s

Time = 0.16

Courant Number mean: 0.00955395 max: 0.428958
smoothSolver:  Solving for Ux, Initial residual = 0.000244443, Final residual = 7.94749e-06, No Iterations 4
smoothSolver:  Solving for Uy, Initial residual = 0.000200109, Final residual = 6.05831e-06, No Iterations 4
smoothSolver:  Solving for Uz, Initial residual = 0.000317828, Final residual = 5.58585e-06, No Iterations 5
DICPCG:  Solving for p, Initial residual = 0.000246601, Final residual = 1.1745e-05, No Iterations 35
time step continuity errors : sum local = 5.11716e-09, global = -8.6194e-11, cumulative = -1.70179e-07
DICPCG:  Solving for p, Initial residual = 0.00016048, Final residual = 7.18162e-07, No Iterations 77
time step continuity errors : sum local = 3.12901e-10, global = -5.30402e-13, cumulative = -1.70179e-07
ExecutionTime = 2.45 s  ClockTime = 2 s

Time = 0.165

Courant Number mean: 0.00955657 max: 0.42901
smoothSolver:  Solving for Ux, Initial residual = 0.000209599, Final residual = 6.83336e-06, No Iterations 4
smoothSolver:  Solving for Uy, Initial residual = 0.000169378, Final residual = 5.1351e-06, No Iterations 4
smoothSolver:  Solving for Uz, Initial residual = 0.000275362, Final residual = 4.84342e-06, No Iterations 5
DICPCG:  Solving for p, Initial residual = 0.000206995, Final residual = 1.02044e-05, No Iterations 23
time step continuity errors : sum local = 4.44629e-09, global = -3.21707e-10, cumulative = -1.70501e-07
DICPCG:  Solving for p, Initial residual = 0.000129145, Final residual = 8.82729e-07, No Iterations 76
time step continuity errors : sum local = 3.84634e-10, global = -7.01053e-12, cumulative = -1.70508e-07
ExecutionTime = 2.5 s  ClockTime = 2 s

Time = 0.17

Courant Number mean: 0.00955879 max: 0.429054
smoothSolver:  Solving for Ux, Initial residual = 0.000179633, Final residual = 5.87157e-06, No Iterations 4
smoothSolver:  Solving for Uy, Initial residual = 0.000142008, Final residual = 9.88196e-06, No Iterations 3
smoothSolver:  Solving for Uz, Initial residual = 0.00024431, Final residual = 9.41328e-06, No Iterations 4
DICPCG:  Solving for p, Initial residual = 0.000183807, Final residual = 9.12984e-06, No Iterations 62
time step continuity errors : sum local = 3.97778e-09, global = -9.24406e-11, cumulative = -1.706e-07
DICPCG:  Solving for p, Initial residual = 0.000119937, Final residual = 9.87369e-07, No Iterations 76
time step continuity errors : sum local = 4.30367e-10, global = -3.88045e-12, cumulative = -1.70604e-07
ExecutionTime = 2.57 s  ClockTime = 2 s

Time = 0.175

Courant Number mean: 0.00956067 max: 0.42909
smoothSolver:  Solving for Ux, Initial residual = 0.000154101, Final residual = 5.04632e-06, No Iterations 4
smoothSolver:  Solving for Uy, Initial residual = 0.000122721, Final residual = 8.58245e-06, No Iterations 3
smoothSolver:  Solving for Uz, Initial residual = 0.000203529, Final residual = 7.83323e-06, No Iterations 4
DICPCG:  Solving for p, Initial residual = 0.000154762, Final residual = 7.15774e-06, No Iterations 23
time step continuity errors : sum local = 3.11898e-09, global = -1.33568e-10, cumulative = -1.70738e-07
DICPCG:  Solving for p, Initial residual = 9.9191e-05, Final residual = 9.40642e-07, No Iterations 61
time step continuity errors : sum local = 4.0989e-10, global = -4.27238e-11, cumulative = -1.7078e-07
ExecutionTime = 2.62 s  ClockTime = 2 s

Time = 0.18

Courant Number mean: 0.00956226 max: 0.42912
smoothSolver:  Solving for Ux, Initial residual = 0.000132424, Final residual = 9.9714e-06, No Iterations 3
smoothSolver:  Solving for Uy, Initial residual = 0.000102914, Final residual = 7.16436e-06, No Iterations 3
smoothSolver:  Solving for Uz, Initial residual = 0.00017766, Final residual = 6.83804e-06, No Iterations 4
DICPCG:  Solving for p, Initial residual = 0.00012008, Final residual = 5.58924e-06, No Iterations 36
time step continuity errors : sum local = 2.43555e-09, global = 2.39738e-10, cumulative = -1.70541e-07
DICPCG:  Solving for p, Initial residual = 7.26293e-05, Final residual = 9.46212e-07, No Iterations 45
time step continuity errors : sum local = 4.12329e-10, global = 3.89602e-11, cumulative = -1.70502e-07
ExecutionTime = 2.67 s  ClockTime = 2 s

Time = 0.185

Courant Number mean: 0.00956363 max: 0.429146
smoothSolver:  Solving for Ux, Initial residual = 0.000114842, Final residual = 8.68385e-06, No Iterations 3
smoothSolver:  Solving for Uy, Initial residual = 8.68086e-05, Final residual = 6.09874e-06, No Iterations 3
smoothSolver:  Solving for Uz, Initial residual = 0.0001524, Final residual = 5.87021e-06, No Iterations 4
DICPCG:  Solving for p, Initial residual = 0.000104176, Final residual = 5.10845e-06, No Iterations 35
time step continuity errors : sum local = 2.22612e-09, global = 2.05979e-12, cumulative = -1.705e-07
DICPCG:  Solving for p, Initial residual = 6.44578e-05, Final residual = 8.90083e-07, No Iterations 53
time step continuity errors : sum local = 3.87878e-10, global = 9.1705e-11, cumulative = -1.70408e-07
ExecutionTime = 2.73 s  ClockTime = 2 s

Time = 0.19

Courant Number mean: 0.00956479 max: 0.429167
smoothSolver:  Solving for Ux, Initial residual = 9.90047e-05, Final residual = 7.50577e-06, No Iterations 3
smoothSolver:  Solving for Uy, Initial residual = 7.37434e-05, Final residual = 5.18183e-06, No Iterations 3
smoothSolver:  Solving for Uz, Initial residual = 0.000132125, Final residual = 5.09038e-06, No Iterations 4
DICPCG:  Solving for p, Initial residual = 8.81649e-05, Final residual = 4.40782e-06, No Iterations 23
time step continuity errors : sum local = 1.92086e-09, global = 1.19352e-10, cumulative = -1.70289e-07
DICPCG:  Solving for p, Initial residual = 5.27837e-05, Final residual = 9.97513e-07, No Iterations 34
time step continuity errors : sum local = 4.34706e-10, global = 1.18174e-11, cumulative = -1.70277e-07
ExecutionTime = 2.77 s  ClockTime = 3 s

Time = 0.195

Courant Number mean: 0.00956579 max: 0.429185
smoothSolver:  Solving for Ux, Initial residual = 8.53772e-05, Final residual = 6.49103e-06, No Iterations 3
smoothSolver:  Solving for Uy, Initial residual = 6.22671e-05, Final residual = 4.37825e-06, No Iterations 3
smoothSolver:  Solving for Uz, Initial residual = 0.00011498, Final residual = 9.76637e-06, No Iterations 3
DICPCG:  Solving for p, Initial residual = 8.23692e-05, Final residual = 4.09753e-06, No Iterations 20
time step continuity errors : sum local = 1.78567e-09, global = -1.39076e-10, cumulative = -1.70416e-07
DICPCG:  Solving for p, Initial residual = 5.23857e-05, Final residual = 9.70341e-07, No Iterations 30
time step continuity errors : sum local = 4.22868e-10, global = -1.6921e-11, cumulative = -1.70433e-07
ExecutionTime = 2.81 s  ClockTime = 3 s

Time = 0.2

Courant Number mean: 0.00956663 max: 0.4292
smoothSolver:  Solving for Ux, Initial residual = 7.34536e-05, Final residual = 5.59361e-06, No Iterations 3
smoothSolver:  Solving for Uy, Initial residual = 5.36894e-05, Final residual = 8.81647e-06, No Iterations 2
smoothSolver:  Solving for Uz, Initial residual = 9.97006e-05, Final residual = 8.4898e-06, No Iterations 3
DICPCG:  Solving for p, Initial residual = 7.02925e-05, Final residual = 3.08642e-06, No Iterations 24
time step continuity errors : sum local = 1.34505e-09, global = 4.80061e-11, cumulative = -1.70385e-07
DICPCG:  Solving for p, Initial residual = 4.55486e-05, Final residual = 9.94871e-07, No Iterations 30
time step continuity errors : sum local = 4.33566e-10, global = 2.45685e-11, cumulative = -1.7036e-07
ExecutionTime = 2.9 s  ClockTime = 3 s

Time = 0.205

Courant Number mean: 0.00956735 max: 0.429212
smoothSolver:  Solving for Ux, Initial residual = 6.34663e-05, Final residual = 4.84616e-06, No Iterations 3
smoothSolver:  Solving for Uy, Initial residual = 4.64038e-05, Final residual = 7.62437e-06, No Iterations 2
smoothSolver:  Solving for Uz, Initial residual = 8.69237e-05, Final residual = 7.4107e-06, No Iterations 3
DICPCG:  Solving for p, Initial residual = 5.98867e-05, Final residual = 2.76459e-06, No Iterations 17
time step continuity errors : sum local = 1.20482e-09, global = -3.71315e-11, cumulative = -1.70397e-07
DICPCG:  Solving for p, Initial residual = 3.87247e-05, Final residual = 8.11191e-07, No Iterations 24
time step continuity errors : sum local = 3.53522e-10, global = 5.58363e-11, cumulative = -1.70342e-07
ExecutionTime = 2.93 s  ClockTime = 3 s

Time = 0.21

Courant Number mean: 0.00956797 max: 0.429223
smoothSolver:  Solving for Ux, Initial residual = 5.50041e-05, Final residual = 9.74219e-06, No Iterations 2
smoothSolver:  Solving for Uy, Initial residual = 3.98968e-05, Final residual = 6.5573e-06, No Iterations 2
smoothSolver:  Solving for Uz, Initial residual = 7.57625e-05, Final residual = 6.46502e-06, No Iterations 3
DICPCG:  Solving for p, Initial residual = 4.69241e-05, Final residual = 2.17289e-06, No Iterations 27
time step continuity errors : sum local = 9.4697e-10, global = 4.18577e-11, cumulative = -1.703e-07
DICPCG:  Solving for p, Initial residual = 2.9231e-05, Final residual = 9.36885e-07, No Iterations 30
time step continuity errors : sum local = 4.08308e-10, global = 1.02197e-10, cumulative = -1.70197e-07
ExecutionTime = 2.97 s  ClockTime = 3 s

Time = 0.215

Courant Number mean: 0.0095685 max: 0.429232
smoothSolver:  Solving for Ux, Initial residual = 4.84349e-05, Final residual = 8.6257e-06, No Iterations 2
smoothSolver:  Solving for Uy, Initial residual = 3.33097e-05, Final residual = 5.55906e-06, No Iterations 2
smoothSolver:  Solving for Uz, Initial residual = 6.56991e-05, Final residual = 5.5949e-06, No Iterations 3
DICPCG:  Solving for p, Initial residual = 4.02694e-05, Final residual = 1.8303e-06, No Iterations 22
time step continuity errors : sum local = 7.97673e-10, global = 1.3507e-10, cumulative = -1.70062e-07
DICPCG:  Solving for p, Initial residual = 2.53473e-05, Final residual = 9.09558e-07, No Iterations 22
time step continuity errors : sum local = 3.96402e-10, global = 1.02453e-10, cumulative = -1.6996e-07
ExecutionTime = 3 s  ClockTime = 3 s

Time = 0.22

Courant Number mean: 0.00956896 max: 0.429239
smoothSolver:  Solving for Ux, Initial residual = 4.22674e-05, Final residual = 7.5457e-06, No Iterations 2
smoothSolver:  Solving for Uy, Initial residual = 2.86186e-05, Final residual = 4.79594e-06, No Iterations 2
smoothSolver:  Solving for Uz, Initial residual = 5.76416e-05, Final residual = 4.9097e-06, No Iterations 3
DICPCG:  Solving for p, Initial residual = 3.51381e-05, Final residual = 1.58722e-06, No Iterations 24
time step continuity errors : sum local = 6.91742e-10, global = 2.22589e-11, cumulative = -1.69938e-07
DICPCG:  Solving for p, Initial residual = 2.20064e-05, Final residual = 9.09054e-07, No Iterations 22
time step continuity errors : sum local = 3.96186e-10, global = 7.74083e-11, cumulative = -1.6986e-07
ExecutionTime = 3.03 s  ClockTime = 3 s

Time = 0.225

Courant Number mean: 0.00956936 max: 0.429246
smoothSolver:  Solving for Ux, Initial residual = 3.68786e-05, Final residual = 6.59981e-06, No Iterations 2
smoothSolver:  Solving for Uy, Initial residual = 2.43497e-05, Final residual = 9.75677e-06, No Iterations 1
smoothSolver:  Solving for Uz, Initial residual = 5.02342e-05, Final residual = 9.53639e-06, No Iterations 2
DICPCG:  Solving for p, Initial residual = 3.64073e-05, Final residual = 1.72391e-06, No Iterations 24
time step continuity errors : sum local = 7.51317e-10, global = 9.17387e-11, cumulative = -1.69769e-07
DICPCG:  Solving for p, Initial residual = 2.45596e-05, Final residual = 9.35303e-07, No Iterations 24
time step continuity errors : sum local = 4.07627e-10, global = 4.74114e-11, cumulative = -1.69721e-07
ExecutionTime = 3.07 s  ClockTime = 3 s

Time = 0.23

Courant Number mean: 0.00956968 max: 0.429251
smoothSolver:  Solving for Ux, Initial residual = 3.17568e-05, Final residual = 5.69005e-06, No Iterations 2
smoothSolver:  Solving for Uy, Initial residual = 2.23298e-05, Final residual = 8.90185e-06, No Iterations 1
smoothSolver:  Solving for Uz, Initial residual = 4.4669e-05, Final residual = 8.50825e-06, No Iterations 2
DICPCG:  Solving for p, Initial residual = 2.89245e-05, Final residual = 1.3546e-06, No Iterations 22
time step continuity errors : sum local = 5.90368e-10, global = -8.81672e-12, cumulative = -1.6973e-07
DICPCG:  Solving for p, Initial residual = 1.92583e-05, Final residual = 9.9176e-07, No Iterations 17
time step continuity errors : sum local = 4.32235e-10, global = 4.93325e-11, cumulative = -1.69681e-07
ExecutionTime = 3.1 s  ClockTime = 3 s

Time = 0.235

Courant Number mean: 0.00956997 max: 0.429256
smoothSolver:  Solving for Ux, Initial residual = 2.80248e-05, Final residual = 5.03339e-06, No Iterations 2
smoothSolver:  Solving for Uy, Initial residual = 1.97833e-05, Final residual = 7.90278e-06, No Iterations 1
smoothSolver:  Solving for Uz, Initial residual = 3.91756e-05, Final residual = 7.48152e-06, No Iterations 2
DICPCG:  Solving for p, Initial residual = 2.56494e-05, Final residual = 1.14388e-06, No Iterations 27
time step continuity errors : sum local = 4.98534e-10, global = -3.1382e-12, cumulative = -1.69684e-07
DICPCG:  Solving for p, Initial residual = 1.73481e-05, Final residual = 9.22049e-07, No Iterations 26
time step continuity errors : sum local = 4.01856e-10, global = 2.08121e-11, cumulative = -1.69663e-07
ExecutionTime = 3.14 s  ClockTime = 3 s

Time = 0.24

Courant Number mean: 0.00957021 max: 0.429259
smoothSolver:  Solving for Ux, Initial residual = 2.45269e-05, Final residual = 4.41092e-06, No Iterations 2
smoothSolver:  Solving for Uy, Initial residual = 1.74924e-05, Final residual = 6.98709e-06, No Iterations 1
smoothSolver:  Solving for Uz, Initial residual = 3.4346e-05, Final residual = 6.56134e-06, No Iterations 2
DICPCG:  Solving for p, Initial residual = 2.23668e-05, Final residual = 1.07931e-06, No Iterations 16
time step continuity errors : sum local = 4.70396e-10, global = -7.89326e-12, cumulative = -1.69671e-07
DICPCG:  Solving for p, Initial residual = 1.52486e-05, Final residual = 7.71106e-07, No Iterations 15
time step continuity errors : sum local = 3.36072e-10, global = 1.41496e-11, cumulative = -1.69657e-07
ExecutionTime = 3.18 s  ClockTime = 3 s

Time = 0.245

Courant Number mean: 0.00957043 max: 0.429263
smoothSolver:  Solving for Ux, Initial residual = 2.15277e-05, Final residual = 9.04175e-06, No Iterations 1
smoothSolver:  Solving for Uy, Initial residual = 1.51993e-05, Final residual = 6.04911e-06, No Iterations 1
smoothSolver:  Solving for Uz, Initial residual = 3.02023e-05, Final residual = 5.77425e-06, No Iterations 2
DICPCG:  Solving for p, Initial residual = 2.81904e-05, Final residual = 1.26067e-06, No Iterations 15
time step continuity errors : sum local = 5.49441e-10, global = 2.78387e-11, cumulative = -1.69629e-07
DICPCG:  Solving for p, Initial residual = 2.46651e-05, Final residual = 8.45758e-07, No Iterations 13
time step continuity errors : sum local = 3.68611e-10, global = -6.07175e-12, cumulative = -1.69635e-07
ExecutionTime = 3.21 s  ClockTime = 3 s

Time = 0.25

Courant Number mean: 0.00957062 max: 0.429266
smoothSolver:  Solving for Ux, Initial residual = 1.97847e-05, Final residual = 8.3474e-06, No Iterations 1
smoothSolver:  Solving for Uy, Initial residual = 1.25137e-05, Final residual = 5.05515e-06, No Iterations 1
smoothSolver:  Solving for Uz, Initial residual = 2.66814e-05, Final residual = 5.08949e-06, No Iterations 2
DICPCG:  Solving for p, Initial residual = 2.47932e-05, Final residual = 1.12371e-06, No Iterations 17
time step continuity errors : sum local = 4.89752e-10, global = -2.64047e-11, cumulative = -1.69661e-07
DICPCG:  Solving for p, Initial residual = 2.15739e-05, Final residual = 9.2244e-07, No Iterations 16
time step continuity errors : sum local = 4.02032e-10, global = 1.66627e-12, cumulative = -1.6966e-07
ExecutionTime = 3.24 s  ClockTime = 3 s

Time = 0.255

Courant Number mean: 0.00957078 max: 0.429268
smoothSolver:  Solving for Ux, Initial residual = 1.74671e-05, Final residual = 7.37292e-06, No Iterations 1
smoothSolver:  Solving for Uy, Initial residual = 1.07609e-05, Final residual = 4.34134e-06, No Iterations 1
smoothSolver:  Solving for Uz, Initial residual = 2.36548e-05, Final residual = 4.50178e-06, No Iterations 2
DICPCG:  Solving for p, Initial residual = 2.28768e-05, Final residual = 1.06985e-06, No Iterations 14
time step continuity errors : sum local = 4.66281e-10, global = 4.28377e-11, cumulative = -1.69617e-07
DICPCG:  Solving for p, Initial residual = 1.95618e-05, Final residual = 8.91581e-07, No Iterations 12
time step continuity errors : sum local = 3.88584e-10, global = 1.92008e-11, cumulative = -1.69598e-07
ExecutionTime = 3.27 s  ClockTime = 3 s

Time = 0.26

Courant Number mean: 0.00957092 max: 0.42927
smoothSolver:  Solving for Ux, Initial residual = 1.56629e-05, Final residual = 6.62288e-06, No Iterations 1
smoothSolver:  Solving for Uy, Initial residual = 9.49326e-06, Final residual = 9.49326e-06, No Iterations 0
smoothSolver:  Solving for Uz, Initial residual = 2.10827e-05, Final residual = 9.07642e-06, No Iterations 1
DICPCG:  Solving for p, Initial residual = 1.67852e-05, Final residual = 9.29796e-07, No Iterations 16
time step continuity errors : sum local = 4.05238e-10, global = 2.54052e-11, cumulative = -1.69572e-07
DICPCG:  Solving for p, Initial residual = 1.1905e-05, Final residual = 9.1869e-07, No Iterations 10
time step continuity errors : sum local = 4.00398e-10, global = 5.02628e-11, cumulative = -1.69522e-07
ExecutionTime = 3.3 s  ClockTime = 3 s

Time = 0.265

Courant Number mean: 0.00957103 max: 0.429272
smoothSolver:  Solving for Ux, Initial residual = 1.35199e-05, Final residual = 5.71205e-06, No Iterations 1
smoothSolver:  Solving for Uy, Initial residual = 9.26486e-06, Final residual = 9.26486e-06, No Iterations 0
smoothSolver:  Solving for Uz, Initial residual = 1.92904e-05, Final residual = 8.33071e-06, No Iterations 1
DICPCG:  Solving for p, Initial residual = 1.2491e-05, Final residual = 8.59063e-07, No Iterations 15
time step continuity errors : sum local = 3.74411e-10, global = 4.65118e-11, cumulative = -1.69475e-07
DICPCG:  Solving for p, Initial residual = 9.04275e-06, Final residual = 9.10987e-07, No Iterations 12
time step continuity errors : sum local = 3.97042e-10, global = 1.64111e-11, cumulative = -1.69459e-07
ExecutionTime = 3.33 s  ClockTime = 3 s

Time = 0.27

Courant Number mean: 0.00957113 max: 0.429273
smoothSolver:  Solving for Ux, Initial residual = 1.21627e-05, Final residual = 5.13797e-06, No Iterations 1
smoothSolver:  Solving for Uy, Initial residual = 8.74776e-06, Final residual = 8.74776e-06, No Iterations 0
smoothSolver:  Solving for Uz, Initial residual = 1.74792e-05, Final residual = 7.56717e-06, No Iterations 1
DICPCG:  Solving for p, Initial residual = 1.13612e-05, Final residual = 8.82387e-07, No Iterations 17
time step continuity errors : sum local = 3.84577e-10, global = 4.17636e-11, cumulative = -1.69417e-07
DICPCG:  Solving for p, Initial residual = 8.43396e-06, Final residual = 9.33632e-07, No Iterations 14
time step continuity errors : sum local = 4.06912e-10, global = 5.24391e-11, cumulative = -1.69365e-07
ExecutionTime = 3.36 s  ClockTime = 3 s

Time = 0.275

Courant Number mean: 0.00957121 max: 0.429275
smoothSolver:  Solving for Ux, Initial residual = 1.10153e-05, Final residual = 4.65333e-06, No Iterations 1
smoothSolver:  Solving for Uy, Initial residual = 8.1947e-06, Final residual = 8.1947e-06, No Iterations 0
smoothSolver:  Solving for Uz, Initial residual = 1.56514e-05, Final residual = 6.78225e-06, No Iterations 1
DICPCG:  Solving for p, Initial residual = 1.04191e-05, Final residual = 9.36454e-07, No Iterations 15
time step continuity errors : sum local = 4.08142e-10, global = 6.03499e-11, cumulative = -1.69304e-07
DICPCG:  Solving for p, Initial residual = 7.65738e-06, Final residual = 7.67468e-07, No Iterations 10
time step continuity errors : sum local = 3.34492e-10, global = 3.81546e-11, cumulative = -1.69266e-07
ExecutionTime = 3.38 s  ClockTime = 3 s

Time = 0.28

Courant Number mean: 0.00957129 max: 0.429276
smoothSolver:  Solving for Ux, Initial residual = 9.8835e-06, Final residual = 9.8835e-06, No Iterations 0
smoothSolver:  Solving for Uy, Initial residual = 7.46745e-06, Final residual = 7.46745e-06, No Iterations 0
smoothSolver:  Solving for Uz, Initial residual = 1.41554e-05, Final residual = 6.1386e-06, No Iterations 1
DICPCG:  Solving for p, Initial residual = 3.53095e-05, Final residual = 1.74463e-06, No Iterations 14
time step continuity errors : sum local = 7.60381e-10, global = 2.6967e-11, cumulative = -1.69239e-07
DICPCG:  Solving for p, Initial residual = 3.38817e-05, Final residual = 8.69331e-07, No Iterations 10
time step continuity errors : sum local = 3.78891e-10, global = 5.83918e-11, cumulative = -1.69181e-07
ExecutionTime = 3.41 s  ClockTime = 3 s

Time = 0.285

Courant Number mean: 0.00957135 max: 0.429277
smoothSolver:  Solving for Ux, Initial residual = 9.72148e-06, Final residual = 9.72148e-06, No Iterations 0
smoothSolver:  Solving for Uy, Initial residual = 6.94954e-06, Final residual = 6.94954e-06, No Iterations 0
smoothSolver:  Solving for Uz, Initial residual = 1.30522e-05, Final residual = 5.63181e-06, No Iterations 1
DICPCG:  Solving for p, Initial residual = 3.09985e-05, Final residual = 1.32788e-06, No Iterations 15
time step continuity errors : sum local = 5.78745e-10, global = 5.58611e-11, cumulative = -1.69125e-07
DICPCG:  Solving for p, Initial residual = 3.08187e-05, Final residual = 8.23908e-07, No Iterations 16
time step continuity errors : sum local = 3.59094e-10, global = 2.70299e-11, cumulative = -1.69098e-07
ExecutionTime = 3.44 s  ClockTime = 3 s

Time = 0.29

Courant Number mean: 0.00957141 max: 0.429278
smoothSolver:  Solving for Ux, Initial residual = 9.11596e-06, Final residual = 9.11596e-06, No Iterations 0
smoothSolver:  Solving for Uy, Initial residual = 6.433e-06, Final residual = 6.433e-06, No Iterations 0
smoothSolver:  Solving for Uz, Initial residual = 1.17366e-05, Final residual = 5.05102e-06, No Iterations 1
DICPCG:  Solving for p, Initial residual = 2.78637e-05, Final residual = 1.2476e-06, No Iterations 15
time step continuity errors : sum local = 5.43755e-10, global = 3.24751e-11, cumulative = -1.69066e-07
DICPCG:  Solving for p, Initial residual = 2.81555e-05, Final residual = 9.91448e-07, No Iterations 12
time step continuity errors : sum local = 4.32115e-10, global = 5.2221e-11, cumulative = -1.69013e-07
ExecutionTime = 3.47 s  ClockTime = 3 s

Time = 0.295

Courant Number mean: 0.00957147 max: 0.429278
smoothSolver:  Solving for Ux, Initial residual = 8.46123e-06, Final residual = 8.46123e-06, No Iterations 0
smoothSolver:  Solving for Uy, Initial residual = 6.09253e-06, Final residual = 6.09253e-06, No Iterations 0
smoothSolver:  Solving for Uz, Initial residual = 1.08949e-05, Final residual = 4.68272e-06, No Iterations 1
DICPCG:  Solving for p, Initial residual = 2.53701e-05, Final residual = 1.15896e-06, No Iterations 15
time step continuity errors : sum local = 5.05123e-10, global = 3.52754e-11, cumulative = -1.68978e-07
DICPCG:  Solving for p, Initial residual = 2.54253e-05, Final residual = 9.79533e-07, No Iterations 15
time step continuity errors : sum local = 4.26923e-10, global = 1.98309e-11, cumulative = -1.68958e-07
ExecutionTime = 3.49 s  ClockTime = 3 s

Time = 0.3

Courant Number mean: 0.00957152 max: 0.429279
smoothSolver:  Solving for Ux, Initial residual = 7.8649e-06, Final residual = 7.8649e-06, No Iterations 0
smoothSolver:  Solving for Uy, Initial residual = 5.68143e-06, Final residual = 5.68143e-06, No Iterations 0
smoothSolver:  Solving for Uz, Initial residual = 9.88238e-06, Final residual = 9.88238e-06, No Iterations 0
DICPCG:  Solving for p, Initial residual = 4.63172e-06, Final residual = 7.71899e-07, No Iterations 6
time step continuity errors : sum local = 3.36425e-10, global = 2.98497e-12, cumulative = -1.68955e-07
DICPCG:  Solving for p, Initial residual = 1.80768e-06, Final residual = 8.66921e-07, No Iterations 2
time step continuity errors : sum local = 3.7784e-10, global = -9.15003e-12, cumulative = -1.68964e-07
ExecutionTime = 3.56 s  ClockTime = 3 s

Time = 0.305

Courant Number mean: 0.00957154 max: 0.429279
smoothSolver:  Solving for Ux, Initial residual = 6.85715e-06, Final residual = 6.85715e-06, No Iterations 0
smoothSolver:  Solving for Uy, Initial residual = 4.59039e-06, Final residual = 4.59039e-06, No Iterations 0
smoothSolver:  Solving for Uz, Initial residual = 9.55705e-06, Final residual = 9.55705e-06, No Iterations 0
DICPCG:  Solving for p, Initial residual = 1.88068e-06, Final residual = 8.63946e-07, No Iterations 9
time step continuity errors : sum local = 3.76543e-10, global = 9.6217e-12, cumulative = -1.68955e-07
DICPCG:  Solving for p, Initial residual = 1.67445e-06, Final residual = 8.6495e-07, No Iterations 2
time step continuity errors : sum local = 3.76981e-10, global = 2.34851e-11, cumulative = -1.68931e-07
ExecutionTime = 3.57 s  ClockTime = 3 s

Time = 0.31

Courant Number mean: 0.00957156 max: 0.42928
smoothSolver:  Solving for Ux, Initial residual = 6.43278e-06, Final residual = 6.43278e-06, No Iterations 0
smoothSolver:  Solving for Uy, Initial residual = 4.11588e-06, Final residual = 4.11588e-06, No Iterations 0
smoothSolver:  Solving for Uz, Initial residual = 9.2454e-06, Final residual = 9.2454e-06, No Iterations 0
DICPCG:  Solving for p, Initial residual = 1.89863e-06, Final residual = 9.41555e-07, No Iterations 5
time step continuity errors : sum local = 4.10369e-10, global = 3.78678e-11, cumulative = -1.68893e-07
DICPCG:  Solving for p, Initial residual = 1.76672e-06, Final residual = 9.71018e-07, No Iterations 5
time step continuity errors : sum local = 4.2321e-10, global = 3.94835e-11, cumulative = -1.68854e-07
ExecutionTime = 3.59 s  ClockTime = 3 s

Time = 0.315

Courant Number mean: 0.00957159 max: 0.42928
smoothSolver:  Solving for Ux, Initial residual = 6.16834e-06, Final residual = 6.16834e-06, No Iterations 0
smoothSolver:  Solving for Uy, Initial residual = 3.76815e-06, Final residual = 3.76815e-06, No Iterations 0
smoothSolver:  Solving for Uz, Initial residual = 8.42874e-06, Final residual = 8.42874e-06, No Iterations 0
DICPCG:  Solving for p, Initial residual = 1.89819e-06, Final residual = 7.89085e-07, No Iterations 4
time step continuity errors : sum local = 3.43916e-10, global = 3.83474e-11, cumulative = -1.68816e-07
DICPCG:  Solving for p, Initial residual = 1.36709e-06, Final residual = 7.99861e-07, No Iterations 2
time step continuity errors : sum local = 3.48613e-10, global = 3.60397e-11, cumulative = -1.6878e-07
ExecutionTime = 3.6 s  ClockTime = 3 s

Time = 0.32

Courant Number mean: 0.00957161 max: 0.42928
smoothSolver:  Solving for Ux, Initial residual = 5.62283e-06, Final residual = 5.62283e-06, No Iterations 0
smoothSolver:  Solving for Uy, Initial residual = 3.42484e-06, Final residual = 3.42484e-06, No Iterations 0
smoothSolver:  Solving for Uz, Initial residual = 8.03608e-06, Final residual = 8.03608e-06, No Iterations 0
DICPCG:  Solving for p, Initial residual = 1.39706e-06, Final residual = 8.32651e-07, No Iterations 2
time step continuity errors : sum local = 3.62904e-10, global = 3.18811e-11, cumulative = -1.68748e-07
DICPCG:  Solving for p, Initial residual = 1.59894e-06, Final residual = 7.21652e-07, No Iterations 2
time step continuity errors : sum local = 3.14526e-10, global = 2.75211e-11, cumulative = -1.6872e-07
ExecutionTime = 3.62 s  ClockTime = 3 s

Time = 0.325

Courant Number mean: 0.00957163 max: 0.42928
smoothSolver:  Solving for Ux, Initial residual = 5.38143e-06, Final residual = 5.38143e-06, No Iterations 0
smoothSolver:  Solving for Uy, Initial residual = 3.21684e-06, Final residual = 3.21684e-06, No Iterations 0
smoothSolver:  Solving for Uz, Initial residual = 7.58095e-06, Final residual = 7.58095e-06, No Iterations 0
DICPCG:  Solving for p, Initial residual = 1.37209e-06, Final residual = 8.69292e-07, No Iterations 3
time step continuity errors : sum local = 3.78874e-10, global = 1.91635e-11, cumulative = -1.68701e-07
DICPCG:  Solving for p, Initial residual = 1.43867e-06, Final residual = 9.32156e-07, No Iterations 1
time step continuity errors : sum local = 4.06273e-10, global = 1.25188e-11, cumulative = -1.68689e-07
ExecutionTime = 3.63 s  ClockTime = 3 s

Time = 0.33

Courant Number mean: 0.00957165 max: 0.429281
smoothSolver:  Solving for Ux, Initial residual = 5.05689e-06, Final residual = 5.05689e-06, No Iterations 0
smoothSolver:  Solving for Uy, Initial residual = 3.06579e-06, Final residual = 3.06579e-06, No Iterations 0
smoothSolver:  Solving for Uz, Initial residual = 7.24969e-06, Final residual = 7.24969e-06, No Iterations 0
DICPCG:  Solving for p, Initial residual = 9.42001e-07, Final residual = 9.42001e-07, No Iterations 0
time step continuity errors : sum local = 4.10564e-10, global = 4.52818e-12, cumulative = -1.68684e-07
DICPCG:  Solving for p, Initial residual = 1.31384e-06, Final residual = 5.6579e-07, No Iterations 2
time step continuity errors : sum local = 2.46595e-10, global = -1.93388e-12, cumulative = -1.68686e-07
ExecutionTime = 3.64 s  ClockTime = 3 s

Time = 0.335

Courant Number mean: 0.00957166 max: 0.429281
smoothSolver:  Solving for Ux, Initial residual = 4.80888e-06, Final residual = 4.80888e-06, No Iterations 0
smoothSolver:  Solving for Uy, Initial residual = 2.86716e-06, Final residual = 2.86716e-06, No Iterations 0
smoothSolver:  Solving for Uz, Initial residual = 6.82832e-06, Final residual = 6.82832e-06, No Iterations 0
DICPCG:  Solving for p, Initial residual = 1.32535e-06, Final residual = 8.63576e-07, No Iterations 2
time step continuity errors : sum local = 3.76383e-10, global = -9.7229e-12, cumulative = -1.68696e-07
DICPCG:  Solving for p, Initial residual = 1.6159e-06, Final residual = 5.77506e-07, No Iterations 2
time step continuity errors : sum local = 2.51702e-10, global = -1.5669e-11, cumulative = -1.68711e-07
ExecutionTime = 3.65 s  ClockTime = 3 s

Time = 0.34

Courant Number mean: 0.00957168 max: 0.429281
smoothSolver:  Solving for Ux, Initial residual = 4.5111e-06, Final residual = 4.5111e-06, No Iterations 0
smoothSolver:  Solving for Uy, Initial residual = 2.70733e-06, Final residual = 2.70733e-06, No Iterations 0
smoothSolver:  Solving for Uz, Initial residual = 6.51162e-06, Final residual = 6.51162e-06, No Iterations 0
DICPCG:  Solving for p, Initial residual = 1.14739e-06, Final residual = 9.29549e-07, No Iterations 2
time step continuity errors : sum local = 4.05137e-10, global = -2.23873e-11, cumulative = -1.68734e-07
DICPCG:  Solving for p, Initial residual = 1.66163e-06, Final residual = 6.74291e-07, No Iterations 2
time step continuity errors : sum local = 2.93885e-10, global = -2.72928e-11, cumulative = -1.68761e-07
ExecutionTime = 3.67 s  ClockTime = 3 s

Time = 0.345

Courant Number mean: 0.0095717 max: 0.429281
smoothSolver:  Solving for Ux, Initial residual = 4.26534e-06, Final residual = 4.26534e-06, No Iterations 0
smoothSolver:  Solving for Uy, Initial residual = 2.58082e-06, Final residual = 2.58082e-06, No Iterations 0
smoothSolver:  Solving for Uz, Initial residual = 6.17779e-06, Final residual = 6.17779e-06, No Iterations 0
DICPCG:  Solving for p, Initial residual = 1.24774e-06, Final residual = 7.73852e-07, No Iterations 9
time step continuity errors : sum local = 3.37278e-10, global = -1.95068e-11, cumulative = -1.68781e-07
DICPCG:  Solving for p, Initial residual = 1.39548e-06, Final residual = 9.81841e-07, No Iterations 2
time step continuity errors : sum local = 4.27928e-10, global = -1.475e-11, cumulative = -1.68795e-07
ExecutionTime = 3.68 s  ClockTime = 3 s

Time = 0.35

Courant Number mean: 0.00957171 max: 0.429281
smoothSolver:  Solving for Ux, Initial residual = 4.05033e-06, Final residual = 4.05033e-06, No Iterations 0
smoothSolver:  Solving for Uy, Initial residual = 2.41399e-06, Final residual = 2.41399e-06, No Iterations 0
smoothSolver:  Solving for Uz, Initial residual = 6.0088e-06, Final residual = 6.0088e-06, No Iterations 0
DICPCG:  Solving for p, Initial residual = 1.73347e-06, Final residual = 9.79524e-07, No Iterations 8
time step continuity errors : sum local = 4.26918e-10, global = -2.10904e-11, cumulative = -1.68816e-07
DICPCG:  Solving for p, Initial residual = 1.68895e-06, Final residual = 9.71634e-07, No Iterations 4
time step continuity errors : sum local = 4.2348e-10, global = -2.18677e-11, cumulative = -1.68838e-07
ExecutionTime = 3.71 s  ClockTime = 3 s

Time = 0.355

Courant Number mean: 0.00957173 max: 0.429282
smoothSolver:  Solving for Ux, Initial residual = 3.90475e-06, Final residual = 3.90475e-06, No Iterations 0
smoothSolver:  Solving for Uy, Initial residual = 2.23205e-06, Final residual = 2.23205e-06, No Iterations 0
smoothSolver:  Solving for Uz, Initial residual = 5.67704e-06, Final residual = 5.67704e-06, No Iterations 0
DICPCG:  Solving for p, Initial residual = 1.45055e-06, Final residual = 8.38087e-07, No Iterations 6
time step continuity errors : sum local = 3.65274e-10, global = -2.13768e-11, cumulative = -1.6886e-07
DICPCG:  Solving for p, Initial residual = 1.34825e-06, Final residual = 9.02504e-07, No Iterations 2
time step continuity errors : sum local = 3.9335e-10, global = -2.14177e-11, cumulative = -1.68881e-07
ExecutionTime = 3.72 s  ClockTime = 3 s

Time = 0.36

Courant Number mean: 0.00957174 max: 0.429282
smoothSolver:  Solving for Ux, Initial residual = 3.63624e-06, Final residual = 3.63624e-06, No Iterations 0
smoothSolver:  Solving for Uy, Initial residual = 2.32387e-06, Final residual = 2.32387e-06, No Iterations 0
smoothSolver:  Solving for Uz, Initial residual = 5.37168e-06, Final residual = 5.37168e-06, No Iterations 0
DICPCG:  Solving for p, Initial residual = 1.53329e-06, Final residual = 7.77667e-07, No Iterations 2
time step continuity errors : sum local = 3.38941e-10, global = -2.16951e-11, cumulative = -1.68903e-07
DICPCG:  Solving for p, Initial residual = 1.44491e-06, Final residual = 8.2225e-07, No Iterations 2
time step continuity errors : sum local = 3.58372e-10, global = -2.21542e-11, cumulative = -1.68925e-07
ExecutionTime = 3.73 s  ClockTime = 3 s

Time = 0.365

Courant Number mean: 0.00957175 max: 0.429282
smoothSolver:  Solving for Ux, Initial residual = 3.49654e-06, Final residual = 3.49654e-06, No Iterations 0
smoothSolver:  Solving for Uy, Initial residual = 2.07348e-06, Final residual = 2.07348e-06, No Iterations 0
smoothSolver:  Solving for Uz, Initial residual = 5.03599e-06, Final residual = 5.03599e-06, No Iterations 0
DICPCG:  Solving for p, Initial residual = 1.40446e-06, Final residual = 9.02979e-07, No Iterations 4
time step continuity errors : sum local = 3.93557e-10, global = -2.30047e-11, cumulative = -1.68948e-07
DICPCG:  Solving for p, Initial residual = 1.13234e-06, Final residual = 8.57807e-07, No Iterations 2
time step continuity errors : sum local = 3.73869e-10, global = -2.28209e-11, cumulative = -1.68971e-07
ExecutionTime = 3.75 s  ClockTime = 3 s

Time = 0.37

Courant Number mean: 0.00957176 max: 0.429282
smoothSolver:  Solving for Ux, Initial residual = 3.27511e-06, Final residual = 3.27511e-06, No Iterations 0
smoothSolver:  Solving for Uy, Initial residual = 1.95562e-06, Final residual = 1.95562e-06, No Iterations 0
smoothSolver:  Solving for Uz, Initial residual = 4.78052e-06, Final residual = 4.78052e-06, No Iterations 0
DICPCG:  Solving for p, Initial residual = 1.28824e-06, Final residual = 8.49422e-07, No Iterations 1
time step continuity errors : sum local = 3.70215e-10, global = -2.24774e-11, cumulative = -1.68993e-07
DICPCG:  Solving for p, Initial residual = 1.00798e-06, Final residual = 8.46889e-07, No Iterations 1
time step continuity errors : sum local = 3.69111e-10, global = -2.17676e-11, cumulative = -1.69015e-07
ExecutionTime = 3.76 s  ClockTime = 4 s

Time = 0.375

Courant Number mean: 0.00957178 max: 0.429282
smoothSolver:  Solving for Ux, Initial residual = 3.1685e-06, Final residual = 3.1685e-06, No Iterations 0
smoothSolver:  Solving for Uy, Initial residual = 1.77337e-06, Final residual = 1.77337e-06, No Iterations 0
smoothSolver:  Solving for Uz, Initial residual = 4.49409e-06, Final residual = 4.49409e-06, No Iterations 0
DICPCG:  Solving for p, Initial residual = 1.22846e-06, Final residual = 8.65573e-07, No Iterations 2
time step continuity errors : sum local = 3.77254e-10, global = -1.88702e-11, cumulative = -1.69034e-07
DICPCG:  Solving for p, Initial residual = 1.03782e-06, Final residual = 7.2888e-07, No Iterations 1
time step continuity errors : sum local = 3.17678e-10, global = -1.61928e-11, cumulative = -1.6905e-07
ExecutionTime = 3.77 s  ClockTime = 4 s

Time = 0.38

Courant Number mean: 0.00957179 max: 0.429282
smoothSolver:  Solving for Ux, Initial residual = 2.95317e-06, Final residual = 2.95317e-06, No Iterations 0
smoothSolver:  Solving for Uy, Initial residual = 1.61718e-06, Final residual = 1.61718e-06, No Iterations 0
smoothSolver:  Solving for Uz, Initial residual = 4.26625e-06, Final residual = 4.26625e-06, No Iterations 0
DICPCG:  Solving for p, Initial residual = 1.08147e-06, Final residual = 8.40022e-07, No Iterations 1
time step continuity errors : sum local = 3.66118e-10, global = -1.25799e-11, cumulative = -1.69063e-07
DICPCG:  Solving for p, Initial residual = 1.05173e-06, Final residual = 9.77188e-07, No Iterations 2
time step continuity errors : sum local = 4.25901e-10, global = -7.04185e-12, cumulative = -1.6907e-07
ExecutionTime = 3.78 s  ClockTime = 4 s

Time = 0.385

Courant Number mean: 0.0095718 max: 0.429283
smoothSolver:  Solving for Ux, Initial residual = 2.72694e-06, Final residual = 2.72694e-06, No Iterations 0
smoothSolver:  Solving for Uy, Initial residual = 1.58908e-06, Final residual = 1.58908e-06, No Iterations 0
smoothSolver:  Solving for Uz, Initial residual = 4.07517e-06, Final residual = 4.07517e-06, No Iterations 0
DICPCG:  Solving for p, Initial residual = 1.50764e-06, Final residual = 7.16389e-07, No Iterations 2
time step continuity errors : sum local = 3.12234e-10, global = -2.41318e-14, cumulative = -1.6907e-07
DICPCG:  Solving for p, Initial residual = 1.26143e-06, Final residual = 8.75251e-07, No Iterations 1
time step continuity errors : sum local = 3.81472e-10, global = 5.74941e-12, cumulative = -1.69064e-07
ExecutionTime = 3.79 s  ClockTime = 4 s

Time = 0.39

Courant Number mean: 0.00957181 max: 0.429283
smoothSolver:  Solving for Ux, Initial residual = 2.63619e-06, Final residual = 2.63619e-06, No Iterations 0
smoothSolver:  Solving for Uy, Initial residual = 1.51801e-06, Final residual = 1.51801e-06, No Iterations 0
smoothSolver:  Solving for Uz, Initial residual = 3.85351e-06, Final residual = 3.85351e-06, No Iterations 0
DICPCG:  Solving for p, Initial residual = 1.14457e-06, Final residual = 7.95041e-07, No Iterations 1
time step continuity errors : sum local = 3.46513e-10, global = 1.28893e-11, cumulative = -1.69051e-07
DICPCG:  Solving for p, Initial residual = 1.0135e-06, Final residual = 8.54156e-07, No Iterations 1
time step continuity errors : sum local = 3.72278e-10, global = 1.86168e-11, cumulative = -1.69032e-07
ExecutionTime = 3.8 s  ClockTime = 4 s

Time = 0.395

Courant Number mean: 0.00957182 max: 0.429283
smoothSolver:  Solving for Ux, Initial residual = 2.51131e-06, Final residual = 2.51131e-06, No Iterations 0
smoothSolver:  Solving for Uy, Initial residual = 1.42069e-06, Final residual = 1.42069e-06, No Iterations 0
smoothSolver:  Solving for Uz, Initial residual = 3.63027e-06, Final residual = 3.63027e-06, No Iterations 0
DICPCG:  Solving for p, Initial residual = 1.02201e-06, Final residual = 9.88471e-07, No Iterations 1
time step continuity errors : sum local = 4.30819e-10, global = 2.56591e-11, cumulative = -1.69007e-07
DICPCG:  Solving for p, Initial residual = 1.16616e-06, Final residual = 8.57783e-07, No Iterations 1
time step continuity errors : sum local = 3.7386e-10, global = 3.11826e-11, cumulative = -1.68976e-07
ExecutionTime = 3.82 s  ClockTime = 4 s

Time = 0.4

Courant Number mean: 0.00957183 max: 0.429283
smoothSolver:  Solving for Ux, Initial residual = 2.39022e-06, Final residual = 2.39022e-06, No Iterations 0
smoothSolver:  Solving for Uy, Initial residual = 1.31966e-06, Final residual = 1.31966e-06, No Iterations 0
smoothSolver:  Solving for Uz, Initial residual = 3.43306e-06, Final residual = 3.43306e-06, No Iterations 0
DICPCG:  Solving for p, Initial residual = 1.08673e-06, Final residual = 8.77464e-07, No Iterations 2
time step continuity errors : sum local = 3.82437e-10, global = 3.75452e-11, cumulative = -1.68938e-07
DICPCG:  Solving for p, Initial residual = 1.06486e-06, Final residual = 8.65809e-07, No Iterations 1
time step continuity errors : sum local = 3.77358e-10, global = 4.2387e-11, cumulative = -1.68896e-07
ExecutionTime = 3.88 s  ClockTime = 4 s

Time = 0.405

Courant Number mean: 0.00957183 max: 0.429283
smoothSolver:  Solving for Ux, Initial residual = 2.20571e-06, Final residual = 2.20571e-06, No Iterations 0
smoothSolver:  Solving for Uy, Initial residual = 1.22047e-06, Final residual = 1.22047e-06, No Iterations 0
smoothSolver:  Solving for Uz, Initial residual = 3.308e-06, Final residual = 3.308e-06, No Iterations 0
DICPCG:  Solving for p, Initial residual = 1.34163e-06, Final residual = 6.94061e-07, No Iterations 1
time step continuity errors : sum local = 3.02502e-10, global = 4.8196e-11, cumulative = -1.68847e-07
DICPCG:  Solving for p, Initial residual = 8.65744e-07, Final residual = 8.65744e-07, No Iterations 0
time step continuity errors : sum local = 3.77329e-10, global = 5.27694e-11, cumulative = -1.68795e-07
ExecutionTime = 3.9 s  ClockTime = 4 s

Time = 0.41

Courant Number mean: 0.00957184 max: 0.429283
smoothSolver:  Solving for Ux, Initial residual = 2.12692e-06, Final residual = 2.12692e-06, No Iterations 0
smoothSolver:  Solving for Uy, Initial residual = 1.13342e-06, Final residual = 1.13342e-06, No Iterations 0
smoothSolver:  Solving for Uz, Initial residual = 3.10766e-06, Final residual = 3.10766e-06, No Iterations 0
DICPCG:  Solving for p, Initial residual = 1.10147e-06, Final residual = 8.29299e-07, No Iterations 1
time step continuity errors : sum local = 3.61445e-10, global = 5.80336e-11, cumulative = -1.68737e-07
DICPCG:  Solving for p, Initial residual = 1.0039e-06, Final residual = 7.43241e-07, No Iterations 1
time step continuity errors : sum local = 3.23937e-10, global = 6.17992e-11, cumulative = -1.68675e-07
ExecutionTime = 3.91 s  ClockTime = 4 s

Time = 0.415

Courant Number mean: 0.00957185 max: 0.429283
smoothSolver:  Solving for Ux, Initial residual = 2.034e-06, Final residual = 2.034e-06, No Iterations 0
smoothSolver:  Solving for Uy, Initial residual = 1.16549e-06, Final residual = 1.16549e-06, No Iterations 0
smoothSolver:  Solving for Uz, Initial residual = 2.90948e-06, Final residual = 2.90948e-06, No Iterations 0
DICPCG:  Solving for p, Initial residual = 9.21174e-07, Final residual = 9.21174e-07, No Iterations 0
time step continuity errors : sum local = 4.01488e-10, global = 6.65509e-11, cumulative = -1.68608e-07
DICPCG:  Solving for p, Initial residual = 1.14216e-06, Final residual = 8.34909e-07, No Iterations 2
time step continuity errors : sum local = 3.6389e-10, global = 6.79391e-11, cumulative = -1.6854e-07
ExecutionTime = 3.92 s  ClockTime = 4 s

Time = 0.42

Courant Number mean: 0.00957186 max: 0.429283
smoothSolver:  Solving for Ux, Initial residual = 1.88333e-06, Final residual = 1.88333e-06, No Iterations 0
smoothSolver:  Solving for Uy, Initial residual = 1.15662e-06, Final residual = 1.15662e-06, No Iterations 0
smoothSolver:  Solving for Uz, Initial residual = 2.74393e-06, Final residual = 2.74393e-06, No Iterations 0
DICPCG:  Solving for p, Initial residual = 1.15483e-06, Final residual = 9.6823e-07, No Iterations 1
time step continuity errors : sum local = 4.21997e-10, global = 6.95622e-11, cumulative = -1.68471e-07
DICPCG:  Solving for p, Initial residual = 1.18679e-06, Final residual = 7.62721e-07, No Iterations 1
time step continuity errors : sum local = 3.32427e-10, global = 7.0402e-11, cumulative = -1.684e-07
ExecutionTime = 3.93 s  ClockTime = 4 s

Time = 0.425

Courant Number mean: 0.00957186 max: 0.429283
smoothSolver:  Solving for Ux, Initial residual = 1.82377e-06, Final residual = 1.82377e-06, No Iterations 0
smoothSolver:  Solving for Uy, Initial residual = 9.87948e-07, Final residual = 9.87948e-07, No Iterations 0
smoothSolver:  Solving for Uz, Initial residual = 2.60335e-06, Final residual = 2.60335e-06, No Iterations 0
DICPCG:  Solving for p, Initial residual = 9.82947e-07, Final residual = 9.82947e-07, No Iterations 0
time step continuity errors : sum local = 4.28412e-10, global = 7.16321e-11, cumulative = -1.68329e-07
DICPCG:  Solving for p, Initial residual = 1.17802e-06, Final residual = 8.68904e-07, No Iterations 4
time step continuity errors : sum local = 3.78707e-10, global = 6.26995e-11, cumulative = -1.68266e-07
ExecutionTime = 3.94 s  ClockTime = 4 s

Time = 0.43

Courant Number mean: 0.00957187 max: 0.429284
smoothSolver:  Solving for Ux, Initial residual = 1.57057e-06, Final residual = 1.57057e-06, No Iterations 0
smoothSolver:  Solving for Uy, Initial residual = 9.68477e-07, Final residual = 9.68477e-07, No Iterations 0
smoothSolver:  Solving for Uz, Initial residual = 2.67267e-06, Final residual = 2.67267e-06, No Iterations 0
DICPCG:  Solving for p, Initial residual = 1.25371e-06, Final residual = 7.55219e-07, No Iterations 3
time step continuity errors : sum local = 3.29158e-10, global = 5.12109e-11, cumulative = -1.68215e-07
DICPCG:  Solving for p, Initial residual = 9.70894e-07, Final residual = 9.70894e-07, No Iterations 0
time step continuity errors : sum local = 4.23159e-10, global = 4.25052e-11, cumulative = -1.68172e-07
ExecutionTime = 3.96 s  ClockTime = 4 s

Time = 0.435

Courant Number mean: 0.00957188 max: 0.429284
smoothSolver:  Solving for Ux, Initial residual = 1.6976e-06, Final residual = 1.6976e-06, No Iterations 0
smoothSolver:  Solving for Uy, Initial residual = 1.06767e-06, Final residual = 1.06767e-06, No Iterations 0
smoothSolver:  Solving for Uz, Initial residual = 2.41905e-06, Final residual = 2.41905e-06, No Iterations 0
DICPCG:  Solving for p, Initial residual = 1.38973e-06, Final residual = 8.67585e-07, No Iterations 2
time step continuity errors : sum local = 3.78132e-10, global = 3.1644e-11, cumulative = -1.68141e-07
DICPCG:  Solving for p, Initial residual = 1.24966e-06, Final residual = 7.22396e-07, No Iterations 1
time step continuity errors : sum local = 3.14852e-10, global = 2.3301e-11, cumulative = -1.68117e-07
ExecutionTime = 3.97 s  ClockTime = 4 s

Time = 0.44

Courant Number mean: 0.00957188 max: 0.429284
smoothSolver:  Solving for Ux, Initial residual = 1.52907e-06, Final residual = 1.52907e-06, No Iterations 0
smoothSolver:  Solving for Uy, Initial residual = 7.90894e-07, Final residual = 7.90894e-07, No Iterations 0
smoothSolver:  Solving for Uz, Initial residual = 2.32413e-06, Final residual = 2.32413e-06, No Iterations 0
DICPCG:  Solving for p, Initial residual = 1.02145e-06, Final residual = 5.86179e-07, No Iterations 1
time step continuity errors : sum local = 2.55483e-10, global = 1.32704e-11, cumulative = -1.68104e-07
DICPCG:  Solving for p, Initial residual = 6.64304e-07, Final residual = 6.64304e-07, No Iterations 0
time step continuity errors : sum local = 2.89533e-10, global = 5.43581e-12, cumulative = -1.68099e-07
ExecutionTime = 3.98 s  ClockTime = 4 s

Time = 0.445

Courant Number mean: 0.00957189 max: 0.429284
smoothSolver:  Solving for Ux, Initial residual = 1.47192e-06, Final residual = 1.47192e-06, No Iterations 0
smoothSolver:  Solving for Uy, Initial residual = 7.56903e-07, Final residual = 7.56903e-07, No Iterations 0
smoothSolver:  Solving for Uz, Initial residual = 2.19688e-06, Final residual = 2.19688e-06, No Iterations 0
DICPCG:  Solving for p, Initial residual = 9.30165e-07, Final residual = 9.30165e-07, No Iterations 0
time step continuity errors : sum local = 4.05407e-10, global = -4.13156e-12, cumulative = -1.68103e-07
DICPCG:  Solving for p, Initial residual = 1.14792e-06, Final residual = 7.23328e-07, No Iterations 2
time step continuity errors : sum local = 3.15259e-10, global = -9.84019e-12, cumulative = -1.68113e-07
ExecutionTime = 3.99 s  ClockTime = 4 s

Time = 0.45

Courant Number mean: 0.00957189 max: 0.429284
smoothSolver:  Solving for Ux, Initial residual = 1.30889e-06, Final residual = 1.30889e-06, No Iterations 0
smoothSolver:  Solving for Uy, Initial residual = 1.13189e-06, Final residual = 1.13189e-06, No Iterations 0
smoothSolver:  Solving for Uz, Initial residual = 2.11831e-06, Final residual = 2.11831e-06, No Iterations 0
DICPCG:  Solving for p, Initial residual = 1.11135e-06, Final residual = 7.82442e-07, No Iterations 1
time step continuity errors : sum local = 3.41023e-10, global = -1.66387e-11, cumulative = -1.68129e-07
DICPCG:  Solving for p, Initial residual = 9.89814e-07, Final residual = 9.89814e-07, No Iterations 0
time step continuity errors : sum local = 4.31405e-10, global = -2.20508e-11, cumulative = -1.68151e-07
ExecutionTime = 4.01 s  ClockTime = 4 s

Time = 0.455

Courant Number mean: 0.0095719 max: 0.429284
smoothSolver:  Solving for Ux, Initial residual = 1.31268e-06, Final residual = 1.31268e-06, No Iterations 0
smoothSolver:  Solving for Uy, Initial residual = 6.352e-07, Final residual = 6.352e-07, No Iterations 0
smoothSolver:  Solving for Uz, Initial residual = 2.00002e-06, Final residual = 2.00002e-06, No Iterations 0
DICPCG:  Solving for p, Initial residual = 1.3727e-06, Final residual = 7.9042e-07, No Iterations 1
time step continuity errors : sum local = 3.445e-10, global = -2.81687e-11, cumulative = -1.68179e-07
DICPCG:  Solving for p, Initial residual = 1.0164e-06, Final residual = 7.0127e-07, No Iterations 1
time step continuity errors : sum local = 3.05645e-10, global = -3.24124e-11, cumulative = -1.68212e-07
ExecutionTime = 4.02 s  ClockTime = 4 s

Time = 0.46

Courant Number mean: 0.0095719 max: 0.429284
smoothSolver:  Solving for Ux, Initial residual = 1.22656e-06, Final residual = 1.22656e-06, No Iterations 0
smoothSolver:  Solving for Uy, Initial residual = 6.98342e-07, Final residual = 6.98342e-07, No Iterations 0
smoothSolver:  Solving for Uz, Initial residual = 1.88593e-06, Final residual = 1.88593e-06, No Iterations 0
DICPCG:  Solving for p, Initial residual = 8.541e-07, Final residual = 8.541e-07, No Iterations 0
time step continuity errors : sum local = 3.72255e-10, global = -3.78222e-11, cumulative = -1.6825e-07
DICPCG:  Solving for p, Initial residual = 9.83424e-07, Final residual = 9.83424e-07, No Iterations 0
time step continuity errors : sum local = 4.2862e-10, global = -4.21078e-11, cumulative = -1.68292e-07
ExecutionTime = 4.03 s  ClockTime = 4 s

Time = 0.465

Courant Number mean: 0.00957191 max: 0.429284
smoothSolver:  Solving for Ux, Initial residual = 1.18999e-06, Final residual = 1.18999e-06, No Iterations 0
smoothSolver:  Solving for Uy, Initial residual = 6.20659e-07, Final residual = 6.20659e-07, No Iterations 0
smoothSolver:  Solving for Uz, Initial residual = 1.77844e-06, Final residual = 1.77844e-06, No Iterations 0
DICPCG:  Solving for p, Initial residual = 1.20414e-06, Final residual = 8.40014e-07, No Iterations 2
time step continuity errors : sum local = 3.66116e-10, global = -4.43842e-11, cumulative = -1.68336e-07
DICPCG:  Solving for p, Initial residual = 1.14277e-06, Final residual = 6.76193e-07, No Iterations 1
time step continuity errors : sum local = 2.94715e-10, global = -4.57056e-11, cumulative = -1.68382e-07
ExecutionTime = 4.04 s  ClockTime = 4 s

Time = 0.47

Courant Number mean: 0.00957191 max: 0.429284
smoothSolver:  Solving for Ux, Initial residual = 1.09397e-06, Final residual = 1.09397e-06, No Iterations 0
smoothSolver:  Solving for Uy, Initial residual = 6.38529e-07, Final residual = 6.38529e-07, No Iterations 0
smoothSolver:  Solving for Uz, Initial residual = 1.69062e-06, Final residual = 1.69062e-06, No Iterations 0
DICPCG:  Solving for p, Initial residual = 9.29972e-07, Final residual = 9.29972e-07, No Iterations 0
time step continuity errors : sum local = 4.05323e-10, global = -4.75693e-11, cumulative = -1.68429e-07
DICPCG:  Solving for p, Initial residual = 1.10298e-06, Final residual = 6.75262e-07, No Iterations 1
time step continuity errors : sum local = 2.94309e-10, global = -4.86202e-11, cumulative = -1.68478e-07
ExecutionTime = 4.05 s  ClockTime = 4 s

Time = 0.475

Courant Number mean: 0.00957192 max: 0.429284
[...]
smoothSolver:  Solving for Uy, Initial residual = 4.86177e-08, Final residual = 4.86177e-08, No Iterations 0
smoothSolver:  Solving for Uz, Initial residual = 2.68484e-09, Final residual = 2.68484e-09, No Iterations 0
DICPCG:  Solving for p, Initial residual = 1.06786e-06, Final residual = 1.01519e-07, No Iterations 1
time step continuity errors : sum local = 4.42467e-11, global = 4.585e-17, cumulative = -1.2751e-07
DICPCG:  Solving for p, Initial residual = 3.92058e-07, Final residual = 3.92058e-07, No Iterations 0
time step continuity errors : sum local = 1.70877e-10, global = 5.45704e-17, cumulative = -1.2751e-07
ExecutionTime = 30.59 s  ClockTime = 31 s

Time = 9.89

Courant Number mean: 0.00957199 max: 0.429285
smoothSolver:  Solving for Ux, Initial residual = 3.1963e-08, Final residual = 3.1963e-08, No Iterations 0
smoothSolver:  Solving for Uy, Initial residual = 2.19201e-07, Final residual = 2.19201e-07, No Iterations 0
smoothSolver:  Solving for Uz, Initial residual = 1.19195e-08, Final residual = 1.19195e-08, No Iterations 0
DICPCG:  Solving for p, Initial residual = 8.28961e-07, Final residual = 8.28961e-07, No Iterations 0
time step continuity errors : sum local = 3.61299e-10, global = 6.00845e-17, cumulative = -1.2751e-07
DICPCG:  Solving for p, Initial residual = 1.02959e-06, Final residual = 9.82883e-08, No Iterations 1
time step continuity errors : sum local = 4.28385e-11, global = 2.93825e-17, cumulative = -1.2751e-07
ExecutionTime = 30.6 s  ClockTime = 31 s

Time = 9.895

Courant Number mean: 0.00957199 max: 0.429285
smoothSolver:  Solving for Ux, Initial residual = 2.61477e-08, Final residual = 2.61477e-08, No Iterations 0
smoothSolver:  Solving for Uy, Initial residual = 1.83615e-07, Final residual = 1.83615e-07, No Iterations 0
smoothSolver:  Solving for Uz, Initial residual = 1.00171e-08, Final residual = 1.00171e-08, No Iterations 0
DICPCG:  Solving for p, Initial residual = 3.94929e-07, Final residual = 3.94929e-07, No Iterations 0
time step continuity errors : sum local = 1.72128e-10, global = 1.35359e-17, cumulative = -1.2751e-07
DICPCG:  Solving for p, Initial residual = 5.53267e-07, Final residual = 5.53267e-07, No Iterations 0
time step continuity errors : sum local = 2.41139e-10, global = 7.04335e-18, cumulative = -1.2751e-07
ExecutionTime = 30.61 s  ClockTime = 31 s

Time = 9.9

Courant Number mean: 0.00957199 max: 0.429285
smoothSolver:  Solving for Ux, Initial residual = 1.45904e-08, Final residual = 1.45904e-08, No Iterations 0
smoothSolver:  Solving for Uy, Initial residual = 9.92901e-08, Final residual = 9.92901e-08, No Iterations 0
smoothSolver:  Solving for Uz, Initial residual = 5.33451e-09, Final residual = 5.33451e-09, No Iterations 0
DICPCG:  Solving for p, Initial residual = 7.36314e-07, Final residual = 7.36314e-07, No Iterations 0
time step continuity errors : sum local = 3.20919e-10, global = 5.04711e-19, cumulative = -1.2751e-07
DICPCG:  Solving for p, Initial residual = 8.25876e-07, Final residual = 8.25876e-07, No Iterations 0
time step continuity errors : sum local = 3.59954e-10, global = -2.93191e-18, cumulative = -1.2751e-07
ExecutionTime = 30.67 s  ClockTime = 31 s

Time = 9.905

Courant Number mean: 0.00957199 max: 0.429285
smoothSolver:  Solving for Ux, Initial residual = 8.50203e-09, Final residual = 8.50203e-09, No Iterations 0
smoothSolver:  Solving for Uy, Initial residual = 5.61014e-08, Final residual = 5.61014e-08, No Iterations 0
smoothSolver:  Solving for Uz, Initial residual = 3.05813e-09, Final residual = 3.05813e-09, No Iterations 0
DICPCG:  Solving for p, Initial residual = 9.25742e-07, Final residual = 9.25742e-07, No Iterations 0
time step continuity errors : sum local = 4.03481e-10, global = -7.18821e-18, cumulative = -1.2751e-07
DICPCG:  Solving for p, Initial residual = 9.76662e-07, Final residual = 9.76662e-07, No Iterations 0
time step continuity errors : sum local = 4.25674e-10, global = -1.04452e-17, cumulative = -1.2751e-07
ExecutionTime = 30.68 s  ClockTime = 31 s

Time = 9.91

Courant Number mean: 0.00957199 max: 0.429285
smoothSolver:  Solving for Ux, Initial residual = 5.12687e-09, Final residual = 5.12687e-09, No Iterations 0
smoothSolver:  Solving for Uy, Initial residual = 3.26928e-08, Final residual = 3.26928e-08, No Iterations 0
smoothSolver:  Solving for Uz, Initial residual = 1.86126e-09, Final residual = 1.86126e-09, No Iterations 0
DICPCG:  Solving for p, Initial residual = 1.03306e-06, Final residual = 1.00374e-07, No Iterations 1
time step continuity errors : sum local = 4.37477e-11, global = 5.34209e-18, cumulative = -1.2751e-07
DICPCG:  Solving for p, Initial residual = 3.95934e-07, Final residual = 3.95934e-07, No Iterations 0
time step continuity errors : sum local = 1.72566e-10, global = 6.38578e-18, cumulative = -1.2751e-07
ExecutionTime = 30.7 s  ClockTime = 31 s

Time = 9.915

Courant Number mean: 0.00957199 max: 0.429285
smoothSolver:  Solving for Ux, Initial residual = 3.25773e-08, Final residual = 3.25773e-08, No Iterations 0
smoothSolver:  Solving for Uy, Initial residual = 2.22522e-07, Final residual = 2.22522e-07, No Iterations 0
smoothSolver:  Solving for Uz, Initial residual = 1.2125e-08, Final residual = 1.2125e-08, No Iterations 0
DICPCG:  Solving for p, Initial residual = 8.36152e-07, Final residual = 8.36152e-07, No Iterations 0
time step continuity errors : sum local = 3.64433e-10, global = 2.22281e-18, cumulative = -1.2751e-07
DICPCG:  Solving for p, Initial residual = 1.04054e-06, Final residual = 1.01494e-07, No Iterations 1
time step continuity errors : sum local = 4.42358e-11, global = -3.4659e-17, cumulative = -1.2751e-07
ExecutionTime = 30.71 s  ClockTime = 31 s

Time = 9.92

Courant Number mean: 0.00957199 max: 0.429285
smoothSolver:  Solving for Ux, Initial residual = 2.67282e-08, Final residual = 2.67282e-08, No Iterations 0
smoothSolver:  Solving for Uy, Initial residual = 1.87403e-07, Final residual = 1.87403e-07, No Iterations 0
smoothSolver:  Solving for Uz, Initial residual = 1.02672e-08, Final residual = 1.02672e-08, No Iterations 0
DICPCG:  Solving for p, Initial residual = 4.02383e-07, Final residual = 4.02383e-07, No Iterations 0
time step continuity errors : sum local = 1.75377e-10, global = -5.56084e-17, cumulative = -1.2751e-07
DICPCG:  Solving for p, Initial residual = 5.64203e-07, Final residual = 5.64203e-07, No Iterations 0
time step continuity errors : sum local = 2.45905e-10, global = -6.52377e-17, cumulative = -1.2751e-07
ExecutionTime = 30.72 s  ClockTime = 31 s

Time = 9.925

Courant Number mean: 0.00957199 max: 0.429285
smoothSolver:  Solving for Ux, Initial residual = 1.49581e-08, Final residual = 1.49581e-08, No Iterations 0
smoothSolver:  Solving for Uy, Initial residual = 1.01709e-07, Final residual = 1.01709e-07, No Iterations 0
smoothSolver:  Solving for Uz, Initial residual = 5.46961e-09, Final residual = 5.46961e-09, No Iterations 0
DICPCG:  Solving for p, Initial residual = 7.51054e-07, Final residual = 7.51054e-07, No Iterations 0
time step continuity errors : sum local = 3.27343e-10, global = -7.50509e-17, cumulative = -1.2751e-07
DICPCG:  Solving for p, Initial residual = 8.42828e-07, Final residual = 8.42828e-07, No Iterations 0
time step continuity errors : sum local = 3.67343e-10, global = -8.08028e-17, cumulative = -1.2751e-07
ExecutionTime = 30.73 s  ClockTime = 31 s

Time = 9.93

Courant Number mean: 0.00957199 max: 0.429285
smoothSolver:  Solving for Ux, Initial residual = 8.74076e-09, Final residual = 8.74076e-09, No Iterations 0
smoothSolver:  Solving for Uy, Initial residual = 5.76267e-08, Final residual = 5.76267e-08, No Iterations 0
smoothSolver:  Solving for Uz, Initial residual = 3.13481e-09, Final residual = 3.13481e-09, No Iterations 0
DICPCG:  Solving for p, Initial residual = 9.45058e-07, Final residual = 9.45058e-07, No Iterations 0
time step continuity errors : sum local = 4.11899e-10, global = -8.74991e-17, cumulative = -1.2751e-07
DICPCG:  Solving for p, Initial residual = 9.97466e-07, Final residual = 9.97466e-07, No Iterations 0
time step continuity errors : sum local = 4.34741e-10, global = -9.25685e-17, cumulative = -1.2751e-07
ExecutionTime = 30.74 s  ClockTime = 31 s

Time = 9.935

Courant Number mean: 0.00957199 max: 0.429285
smoothSolver:  Solving for Ux, Initial residual = 5.28296e-09, Final residual = 5.28296e-09, No Iterations 0
smoothSolver:  Solving for Uy, Initial residual = 3.3655e-08, Final residual = 3.3655e-08, No Iterations 0
smoothSolver:  Solving for Uz, Initial residual = 1.90768e-09, Final residual = 1.90768e-09, No Iterations 0
DICPCG:  Solving for p, Initial residual = 1.05541e-06, Final residual = 1.03712e-07, No Iterations 1
time step continuity errors : sum local = 4.52025e-11, global = -6.36688e-17, cumulative = -1.2751e-07
DICPCG:  Solving for p, Initial residual = 4.06986e-07, Final residual = 4.06986e-07, No Iterations 0
time step continuity errors : sum local = 1.77383e-10, global = -5.64596e-17, cumulative = -1.2751e-07
ExecutionTime = 30.76 s  ClockTime = 31 s

Time = 9.94

Courant Number mean: 0.00957199 max: 0.429285
smoothSolver:  Solving for Ux, Initial residual = 3.35267e-08, Final residual = 3.35267e-08, No Iterations 0
smoothSolver:  Solving for Uy, Initial residual = 2.28891e-07, Final residual = 2.28891e-07, No Iterations 0
smoothSolver:  Solving for Uz, Initial residual = 1.2473e-08, Final residual = 1.2473e-08, No Iterations 0
DICPCG:  Solving for p, Initial residual = 8.58108e-07, Final residual = 8.58108e-07, No Iterations 0
time step continuity errors : sum local = 3.74003e-10, global = -5.35165e-17, cumulative = -1.2751e-07
DICPCG:  Solving for p, Initial residual = 1.06842e-06, Final residual = 1.05292e-07, No Iterations 1
time step continuity errors : sum local = 4.58913e-11, global = -7.82617e-17, cumulative = -1.2751e-07
ExecutionTime = 30.77 s  ClockTime = 31 s

Time = 9.945

Courant Number mean: 0.00957199 max: 0.429285
smoothSolver:  Solving for Ux, Initial residual = 2.76154e-08, Final residual = 2.76154e-08, No Iterations 0
smoothSolver:  Solving for Uy, Initial residual = 1.93491e-07, Final residual = 1.93491e-07, No Iterations 0
smoothSolver:  Solving for Uz, Initial residual = 1.06197e-08, Final residual = 1.06197e-08, No Iterations 0
DICPCG:  Solving for p, Initial residual = 4.14957e-07, Final residual = 4.14957e-07, No Iterations 0
time step continuity errors : sum local = 1.80857e-10, global = -8.65416e-17, cumulative = -1.2751e-07
DICPCG:  Solving for p, Initial residual = 5.823e-07, Final residual = 5.823e-07, No Iterations 0
time step continuity errors : sum local = 2.53793e-10, global = -8.62979e-17, cumulative = -1.2751e-07
ExecutionTime = 30.78 s  ClockTime = 31 s

Time = 9.95

Courant Number mean: 0.00957199 max: 0.429285
smoothSolver:  Solving for Ux, Initial residual = 1.54846e-08, Final residual = 1.54846e-08, No Iterations 0
smoothSolver:  Solving for Uy, Initial residual = 1.05264e-07, Final residual = 1.05264e-07, No Iterations 0
smoothSolver:  Solving for Uz, Initial residual = 5.66627e-09, Final residual = 5.66627e-09, No Iterations 0
DICPCG:  Solving for p, Initial residual = 7.75264e-07, Final residual = 7.75264e-07, No Iterations 0
time step continuity errors : sum local = 3.37896e-10, global = -8.39601e-17, cumulative = -1.2751e-07
DICPCG:  Solving for p, Initial residual = 8.70352e-07, Final residual = 8.70352e-07, No Iterations 0
time step continuity errors : sum local = 3.79339e-10, global = -8.01376e-17, cumulative = -1.2751e-07
ExecutionTime = 30.79 s  ClockTime = 31 s

Time = 9.955

Courant Number mean: 0.00957199 max: 0.429285
smoothSolver:  Solving for Ux, Initial residual = 9.06684e-09, Final residual = 9.06684e-09, No Iterations 0
smoothSolver:  Solving for Uy, Initial residual = 5.9785e-08, Final residual = 5.9785e-08, No Iterations 0
smoothSolver:  Solving for Uz, Initial residual = 3.25449e-09, Final residual = 3.25449e-09, No Iterations 0
DICPCG:  Solving for p, Initial residual = 9.76148e-07, Final residual = 9.76148e-07, No Iterations 0
time step continuity errors : sum local = 4.2545e-10, global = -7.52348e-17, cumulative = -1.2751e-07
DICPCG:  Solving for p, Initial residual = 1.03054e-06, Final residual = 1.00663e-07, No Iterations 1
time step continuity errors : sum local = 4.38736e-11, global = -3.08328e-17, cumulative = -1.2751e-07
ExecutionTime = 30.8 s  ClockTime = 31 s

Time = 9.96

Courant Number mean: 0.00957199 max: 0.429285
smoothSolver:  Solving for Ux, Initial residual = 3.9647e-08, Final residual = 3.9647e-08, No Iterations 0
smoothSolver:  Solving for Uy, Initial residual = 2.74137e-07, Final residual = 2.74137e-07, No Iterations 0
smoothSolver:  Solving for Uz, Initial residual = 1.4889e-08, Final residual = 1.4889e-08, No Iterations 0
DICPCG:  Solving for p, Initial residual = 5.57971e-07, Final residual = 5.57971e-07, No Iterations 0
time step continuity errors : sum local = 2.43189e-10, global = -5.12645e-18, cumulative = -1.2751e-07
DICPCG:  Solving for p, Initial residual = 8.03984e-07, Final residual = 8.03984e-07, No Iterations 0
time step continuity errors : sum local = 3.50413e-10, global = 7.4965e-18, cumulative = -1.2751e-07
ExecutionTime = 30.81 s  ClockTime = 31 s

Time = 9.965

Courant Number mean: 0.00957199 max: 0.429285
smoothSolver:  Solving for Ux, Initial residual = 2.26553e-08, Final residual = 2.26553e-08, No Iterations 0
smoothSolver:  Solving for Uy, Initial residual = 1.51856e-07, Final residual = 1.51856e-07, No Iterations 0
smoothSolver:  Solving for Uz, Initial residual = 8.1877e-09, Final residual = 8.1877e-09, No Iterations 0
DICPCG:  Solving for p, Initial residual = 1.08373e-06, Final residual = 1.05779e-07, No Iterations 1
time step continuity errors : sum local = 4.61033e-11, global = -3.13906e-19, cumulative = -1.2751e-07
DICPCG:  Solving for p, Initial residual = 3.16076e-07, Final residual = 3.16076e-07, No Iterations 0
time step continuity errors : sum local = 1.3776e-10, global = 6.89171e-18, cumulative = -1.2751e-07
ExecutionTime = 30.82 s  ClockTime = 31 s

Time = 9.97

Courant Number mean: 0.00957199 max: 0.429285
smoothSolver:  Solving for Ux, Initial residual = 2.42527e-08, Final residual = 2.42527e-08, No Iterations 0
smoothSolver:  Solving for Uy, Initial residual = 1.68312e-07, Final residual = 1.68312e-07, No Iterations 0
smoothSolver:  Solving for Uz, Initial residual = 9.2009e-09, Final residual = 9.2009e-09, No Iterations 0
DICPCG:  Solving for p, Initial residual = 6.55539e-07, Final residual = 6.55539e-07, No Iterations 0
time step continuity errors : sum local = 2.85714e-10, global = 2.14682e-17, cumulative = -1.2751e-07
DICPCG:  Solving for p, Initial residual = 8.06471e-07, Final residual = 8.06471e-07, No Iterations 0
time step continuity errors : sum local = 3.51497e-10, global = 3.65263e-17, cumulative = -1.2751e-07
ExecutionTime = 30.83 s  ClockTime = 31 s

Time = 9.975

Courant Number mean: 0.00957199 max: 0.429285
smoothSolver:  Solving for Ux, Initial residual = 1.38936e-08, Final residual = 1.38936e-08, No Iterations 0
smoothSolver:  Solving for Uy, Initial residual = 9.33699e-08, Final residual = 9.33699e-08, No Iterations 0
smoothSolver:  Solving for Uz, Initial residual = 5.05651e-09, Final residual = 5.05651e-09, No Iterations 0
DICPCG:  Solving for p, Initial residual = 9.80354e-07, Final residual = 9.80354e-07, No Iterations 0
time step continuity errors : sum local = 4.27283e-10, global = 5.6621e-17, cumulative = -1.2751e-07
DICPCG:  Solving for p, Initial residual = 1.06555e-06, Final residual = 1.023e-07, No Iterations 1
time step continuity errors : sum local = 4.45868e-11, global = 1.08945e-16, cumulative = -1.2751e-07
ExecutionTime = 30.84 s  ClockTime = 31 s

Time = 9.98

Courant Number mean: 0.00957199 max: 0.429285
smoothSolver:  Solving for Ux, Initial residual = 3.79706e-08, Final residual = 3.79706e-08, No Iterations 0
smoothSolver:  Solving for Uy, Initial residual = 2.63608e-07, Final residual = 2.63608e-07, No Iterations 0
smoothSolver:  Solving for Uz, Initial residual = 1.43082e-08, Final residual = 1.43082e-08, No Iterations 0
DICPCG:  Solving for p, Initial residual = 5.42326e-07, Final residual = 5.42326e-07, No Iterations 0
time step continuity errors : sum local = 2.3637e-10, global = 1.44643e-16, cumulative = -1.2751e-07
DICPCG:  Solving for p, Initial residual = 7.77526e-07, Final residual = 7.77526e-07, No Iterations 0
time step continuity errors : sum local = 3.38881e-10, global = 1.64578e-16, cumulative = -1.2751e-07
ExecutionTime = 30.85 s  ClockTime = 31 s

Time = 9.985

Courant Number mean: 0.00957199 max: 0.429285
smoothSolver:  Solving for Ux, Initial residual = 2.15822e-08, Final residual = 2.15822e-08, No Iterations 0
smoothSolver:  Solving for Uy, Initial residual = 1.45182e-07, Final residual = 1.45182e-07, No Iterations 0
smoothSolver:  Solving for Uz, Initial residual = 7.8194e-09, Final residual = 7.8194e-09, No Iterations 0
DICPCG:  Solving for p, Initial residual = 1.04572e-06, Final residual = 9.96923e-08, No Iterations 1
time step continuity errors : sum local = 4.34504e-11, global = 1.55088e-16, cumulative = -1.2751e-07
DICPCG:  Solving for p, Initial residual = 3.0142e-07, Final residual = 3.0142e-07, No Iterations 0
time step continuity errors : sum local = 1.31373e-10, global = 1.62299e-16, cumulative = -1.2751e-07
ExecutionTime = 30.87 s  ClockTime = 31 s

Time = 9.99

Courant Number mean: 0.00957199 max: 0.429285
smoothSolver:  Solving for Ux, Initial residual = 2.30944e-08, Final residual = 2.30944e-08, No Iterations 0
smoothSolver:  Solving for Uy, Initial residual = 1.60658e-07, Final residual = 1.60658e-07, No Iterations 0
smoothSolver:  Solving for Uz, Initial residual = 8.73945e-09, Final residual = 8.73945e-09, No Iterations 0
DICPCG:  Solving for p, Initial residual = 6.27307e-07, Final residual = 6.27307e-07, No Iterations 0
time step continuity errors : sum local = 2.73409e-10, global = 1.75954e-16, cumulative = -1.2751e-07
DICPCG:  Solving for p, Initial residual = 7.71005e-07, Final residual = 7.71005e-07, No Iterations 0
time step continuity errors : sum local = 3.36039e-10, global = 1.9067e-16, cumulative = -1.2751e-07
ExecutionTime = 30.89 s  ClockTime = 31 s

Time = 9.995

Courant Number mean: 0.00957199 max: 0.429285
smoothSolver:  Solving for Ux, Initial residual = 1.31774e-08, Final residual = 1.31774e-08, No Iterations 0
smoothSolver:  Solving for Uy, Initial residual = 8.87323e-08, Final residual = 8.87323e-08, No Iterations 0
smoothSolver:  Solving for Uz, Initial residual = 4.78664e-09, Final residual = 4.78664e-09, No Iterations 0
DICPCG:  Solving for p, Initial residual = 9.36974e-07, Final residual = 9.36974e-07, No Iterations 0
time step continuity errors : sum local = 4.08376e-10, global = 2.09928e-16, cumulative = -1.2751e-07
DICPCG:  Solving for p, Initial residual = 1.01767e-06, Final residual = 9.62597e-08, No Iterations 1
time step continuity errors : sum local = 4.19543e-11, global = 2.54398e-16, cumulative = -1.2751e-07
ExecutionTime = 30.9 s  ClockTime = 31 s

Time = 10

Courant Number mean: 0.00957199 max: 0.429285
smoothSolver:  Solving for Ux, Initial residual = 3.59568e-08, Final residual = 3.59568e-08, No Iterations 0
smoothSolver:  Solving for Uy, Initial residual = 2.50064e-07, Final residual = 2.50064e-07, No Iterations 0
smoothSolver:  Solving for Uz, Initial residual = 1.35446e-08, Final residual = 1.35446e-08, No Iterations 0
DICPCG:  Solving for p, Initial residual = 5.15514e-07, Final residual = 5.15514e-07, No Iterations 0
time step continuity errors : sum local = 2.24685e-10, global = 2.83219e-16, cumulative = -1.2751e-07
DICPCG:  Solving for p, Initial residual = 7.38162e-07, Final residual = 7.38162e-07, No Iterations 0
time step continuity errors : sum local = 3.21725e-10, global = 2.98023e-16, cumulative = -1.2751e-07
ExecutionTime = 30.95 s  ClockTime = 31 s

End

