/*---------------------------------------------------------------------------*\
| =========                 |                                                 |
| \\      /  F ield         | OpenFOAM: The Open Source CFD Toolbox           |
|  \\    /   O peration     | Version:  2412                                  |
|   \\  /    A nd           | Website:  www.openfoam.com                      |
|    \\/     M anipulation  |                                                 |
\*---------------------------------------------------------------------------*/
Build  : _45e7c4a0-20241224 OPENFOAM=2412 version=2412
Arch   : "LSB;label=32;scalar=64"
Exec   : simpleFoam
Date   : Feb 25 2025
Time   : 22:59:42
Host   : LAPTOP-CKF7412P
PID    : 14079
I/O    : uncollated
Case   : /home/tafslucas/OpenFOAM/tafslucas-v2412/run/HM/HM1/turbulento_newtonian
nProcs : 1
trapFpe: Floating point exception trapping enabled (FOAM_SIGFPE).
fileModificationChecking : Monitoring run-time modified files using timeStampMaster (fileModificationSkew 5, maxFileModificationPolls 20)
allowSystemOperations : Allowing user-supplied system call operations

// * * * * * * * * * * * * * * * * * * * * * * * * * * * * * * * * * * * * * //
Create time

Create mesh for time = 0


SIMPLE: convergence criteria
    field p	 tolerance 1e-05
    field U	 tolerance 1e-05
    field nuTilda	 tolerance 1e-05

Reading field p

Reading field U

Reading/calculating face flux field phi

Selecting incompressible transport model Newtonian
Selecting turbulence model type RAS
Selecting RAS turbulence model SpalartAllmaras
Selecting patchDistMethod meshWave
ft2 term: inactive
No MRF models present

No finite volume options present

Starting time loop

Time = 0.001

smoothSolver:  Solving for Ux, Initial residual = 0.999786, Final residual = 2.88482e-06, No Iterations 6
smoothSolver:  Solving for Uy, Initial residual = 0.999788, Final residual = 3.28338e-06, No Iterations 6
smoothSolver:  Solving for Uz, Initial residual = 1, Final residual = 3.78946e-06, No Iterations 7
DICPCG:  Solving for p, Initial residual = 1, Final residual = 0.0224513, No Iterations 39
time step continuity errors : sum local = 3.74189e-06, global = 3.53772e-08, cumulative = 3.53772e-08
smoothSolver:  Solving for nuTilda, Initial residual = 0, Final residual = 0, No Iterations 0
ExecutionTime = 0.61 s  ClockTime = 1 s

Time = 0.002

smoothSolver:  Solving for Ux, Initial residual = 0.440853, Final residual = 5.24466e-06, No Iterations 8
smoothSolver:  Solving for Uy, Initial residual = 0.440617, Final residual = 5.06851e-06, No Iterations 8
smoothSolver:  Solving for Uz, Initial residual = 0.44848, Final residual = 4.20558e-06, No Iterations 8
DICPCG:  Solving for p, Initial residual = 0.0471446, Final residual = 0.00154504, No Iterations 41
time step continuity errors : sum local = 2.66153e-06, global = 8.04737e-08, cumulative = 1.15851e-07
smoothSolver:  Solving for nuTilda, Initial residual = 0, Final residual = 0, No Iterations 0
ExecutionTime = 0.71 s  ClockTime = 1 s

Time = 0.003

smoothSolver:  Solving for Ux, Initial residual = 0.201736, Final residual = 9.53377e-06, No Iterations 7
smoothSolver:  Solving for Uy, Initial residual = 0.201934, Final residual = 9.33071e-06, No Iterations 7
smoothSolver:  Solving for Uz, Initial residual = 0.495103, Final residual = 3.38141e-06, No Iterations 8
DICPCG:  Solving for p, Initial residual = 0.0171808, Final residual = 0.000657826, No Iterations 40
time step continuity errors : sum local = 2.60104e-06, global = -7.64696e-08, cumulative = 3.93813e-08
smoothSolver:  Solving for nuTilda, Initial residual = 0, Final residual = 0, No Iterations 0
ExecutionTime = 0.81 s  ClockTime = 1 s

Time = 0.004

smoothSolver:  Solving for Ux, Initial residual = 0.256447, Final residual = 3.20637e-06, No Iterations 7
smoothSolver:  Solving for Uy, Initial residual = 0.256745, Final residual = 3.18307e-06, No Iterations 7
smoothSolver:  Solving for Uz, Initial residual = 0.193972, Final residual = 5.42955e-06, No Iterations 7
DICPCG:  Solving for p, Initial residual = 0.0489598, Final residual = 0.00141091, No Iterations 40
time step continuity errors : sum local = 2.82123e-06, global = -7.89878e-08, cumulative = -3.96065e-08
smoothSolver:  Solving for nuTilda, Initial residual = 0, Final residual = 0, No Iterations 0
ExecutionTime = 0.93 s  ClockTime = 1 s

Time = 0.005

smoothSolver:  Solving for Ux, Initial residual = 0.381991, Final residual = 8.90301e-06, No Iterations 7
smoothSolver:  Solving for Uy, Initial residual = 0.382325, Final residual = 8.60815e-06, No Iterations 7
smoothSolver:  Solving for Uz, Initial residual = 0.191881, Final residual = 2.75038e-06, No Iterations 7
DICPCG:  Solving for p, Initial residual = 0.0527924, Final residual = 0.00188533, No Iterations 40
time step continuity errors : sum local = 2.11889e-06, global = -6.87571e-08, cumulative = -1.08364e-07
smoothSolver:  Solving for nuTilda, Initial residual = 0, Final residual = 0, No Iterations 0
ExecutionTime = 1.03 s  ClockTime = 1 s

Time = 0.006

smoothSolver:  Solving for Ux, Initial residual = 0.31438, Final residual = 5.25774e-06, No Iterations 7
smoothSolver:  Solving for Uy, Initial residual = 0.313904, Final residual = 5.19677e-06, No Iterations 7
smoothSolver:  Solving for Uz, Initial residual = 0.365885, Final residual = 6.25673e-06, No Iterations 7
DICPCG:  Solving for p, Initial residual = 0.0309709, Final residual = 0.00119096, No Iterations 37
time step continuity errors : sum local = 2.27538e-06, global = -9.13219e-08, cumulative = -1.99686e-07
smoothSolver:  Solving for nuTilda, Initial residual = 0, Final residual = 0, No Iterations 0
ExecutionTime = 1.13 s  ClockTime = 1 s

Time = 0.007

smoothSolver:  Solving for Ux, Initial residual = 0.194364, Final residual = 3.84912e-06, No Iterations 7
smoothSolver:  Solving for Uy, Initial residual = 0.193894, Final residual = 3.67399e-06, No Iterations 7
smoothSolver:  Solving for Uz, Initial residual = 0.12119, Final residual = 6.23681e-06, No Iterations 6
DICPCG:  Solving for p, Initial residual = 0.112962, Final residual = 0.00460947, No Iterations 38
time step continuity errors : sum local = 2.40082e-06, global = 1.98909e-08, cumulative = -1.79795e-07
smoothSolver:  Solving for nuTilda, Initial residual = 0, Final residual = 0, No Iterations 0
ExecutionTime = 1.24 s  ClockTime = 2 s

Time = 0.008

smoothSolver:  Solving for Ux, Initial residual = 0.178602, Final residual = 5.14956e-06, No Iterations 7
smoothSolver:  Solving for Uy, Initial residual = 0.178644, Final residual = 4.97494e-06, No Iterations 7
smoothSolver:  Solving for Uz, Initial residual = 0.163835, Final residual = 4.06389e-06, No Iterations 7
DICPCG:  Solving for p, Initial residual = 0.0447099, Final residual = 0.00170836, No Iterations 39
time step continuity errors : sum local = 1.95839e-06, global = 5.62911e-08, cumulative = -1.23504e-07
smoothSolver:  Solving for nuTilda, Initial residual = 0, Final residual = 0, No Iterations 0
ExecutionTime = 1.33 s  ClockTime = 2 s

Time = 0.009

smoothSolver:  Solving for Ux, Initial residual = 0.189621, Final residual = 2.97293e-06, No Iterations 7
smoothSolver:  Solving for Uy, Initial residual = 0.190496, Final residual = 2.92837e-06, No Iterations 7
smoothSolver:  Solving for Uz, Initial residual = 0.168369, Final residual = 4.23678e-06, No Iterations 7
DICPCG:  Solving for p, Initial residual = 0.0369112, Final residual = 0.00123634, No Iterations 39
time step continuity errors : sum local = 1.64563e-06, global = 6.70703e-08, cumulative = -5.64332e-08
smoothSolver:  Solving for nuTilda, Initial residual = 0, Final residual = 0, No Iterations 0
ExecutionTime = 1.42 s  ClockTime = 2 s

Time = 0.01

smoothSolver:  Solving for Ux, Initial residual = 0.231306, Final residual = 4.69355e-06, No Iterations 7
smoothSolver:  Solving for Uy, Initial residual = 0.229914, Final residual = 4.49846e-06, No Iterations 7
smoothSolver:  Solving for Uz, Initial residual = 0.0425475, Final residual = 6.55412e-06, No Iterations 6
DICPCG:  Solving for p, Initial residual = 0.0951386, Final residual = 0.00392249, No Iterations 37
time step continuity errors : sum local = 1.84677e-06, global = 1.17261e-07, cumulative = 6.08282e-08
smoothSolver:  Solving for nuTilda, Initial residual = 0, Final residual = 0, No Iterations 0
ExecutionTime = 1.51 s  ClockTime = 2 s

Time = 0.011

smoothSolver:  Solving for Ux, Initial residual = 0.22214, Final residual = 5.20001e-06, No Iterations 7
smoothSolver:  Solving for Uy, Initial residual = 0.221758, Final residual = 5.08203e-06, No Iterations 7
smoothSolver:  Solving for Uz, Initial residual = 0.0832953, Final residual = 3.91353e-06, No Iterations 6
DICPCG:  Solving for p, Initial residual = 0.0958517, Final residual = 0.00337145, No Iterations 24
time step continuity errors : sum local = 1.44427e-06, global = -1.04078e-07, cumulative = -4.32495e-08
smoothSolver:  Solving for nuTilda, Initial residual = 0, Final residual = 0, No Iterations 0
ExecutionTime = 1.59 s  ClockTime = 2 s

Time = 0.012

smoothSolver:  Solving for Ux, Initial residual = 0.179352, Final residual = 3.71065e-06, No Iterations 7
smoothSolver:  Solving for Uy, Initial residual = 0.179862, Final residual = 3.65492e-06, No Iterations 7
smoothSolver:  Solving for Uz, Initial residual = 0.0812436, Final residual = 3.66078e-06, No Iterations 6
DICPCG:  Solving for p, Initial residual = 0.090645, Final residual = 0.00444788, No Iterations 38
time step continuity errors : sum local = 1.86282e-06, global = -5.0905e-08, cumulative = -9.41545e-08
smoothSolver:  Solving for nuTilda, Initial residual = 0, Final residual = 0, No Iterations 0
ExecutionTime = 1.68 s  ClockTime = 2 s

Time = 0.013

smoothSolver:  Solving for Ux, Initial residual = 0.136907, Final residual = 2.88054e-06, No Iterations 7
smoothSolver:  Solving for Uy, Initial residual = 0.136809, Final residual = 2.83e-06, No Iterations 7
smoothSolver:  Solving for Uz, Initial residual = 0.0192941, Final residual = 2.756e-06, No Iterations 6
DICPCG:  Solving for p, Initial residual = 0.176263, Final residual = 0.00741139, No Iterations 35
time step continuity errors : sum local = 1.44613e-06, global = 3.2119e-08, cumulative = -6.20354e-08
smoothSolver:  Solving for nuTilda, Initial residual = 0, Final residual = 0, No Iterations 0
ExecutionTime = 1.78 s  ClockTime = 2 s

Time = 0.014

smoothSolver:  Solving for Ux, Initial residual = 0.116529, Final residual = 9.1069e-06, No Iterations 6
smoothSolver:  Solving for Uy, Initial residual = 0.116437, Final residual = 8.97394e-06, No Iterations 6
smoothSolver:  Solving for Uz, Initial residual = 0.0546403, Final residual = 6.11317e-06, No Iterations 6
DICPCG:  Solving for p, Initial residual = 0.0569015, Final residual = 0.00230097, No Iterations 38
time step continuity errors : sum local = 1.26304e-06, global = -2.50829e-08, cumulative = -8.71184e-08
smoothSolver:  Solving for nuTilda, Initial residual = 0, Final residual = 0, No Iterations 0
ExecutionTime = 1.87 s  ClockTime = 2 s

Time = 0.015

smoothSolver:  Solving for Ux, Initial residual = 0.116145, Final residual = 8.15898e-06, No Iterations 6
smoothSolver:  Solving for Uy, Initial residual = 0.116066, Final residual = 8.06613e-06, No Iterations 6
smoothSolver:  Solving for Uz, Initial residual = 0.0457914, Final residual = 5.88e-06, No Iterations 6
DICPCG:  Solving for p, Initial residual = 0.0569637, Final residual = 0.00191631, No Iterations 38
time step continuity errors : sum local = 9.41847e-07, global = -9.29813e-09, cumulative = -9.64165e-08
smoothSolver:  Solving for nuTilda, Initial residual = 0, Final residual = 0, No Iterations 0
ExecutionTime = 1.96 s  ClockTime = 2 s

Time = 0.016

smoothSolver:  Solving for Ux, Initial residual = 0.121198, Final residual = 2.70135e-06, No Iterations 7
smoothSolver:  Solving for Uy, Initial residual = 0.121395, Final residual = 9.97173e-06, No Iterations 6
smoothSolver:  Solving for Uz, Initial residual = 0.0185241, Final residual = 3.39164e-06, No Iterations 6
DICPCG:  Solving for p, Initial residual = 0.117887, Final residual = 0.00446177, No Iterations 38
time step continuity errors : sum local = 9.54688e-07, global = 2.10233e-08, cumulative = -7.53932e-08
smoothSolver:  Solving for nuTilda, Initial residual = 0, Final residual = 0, No Iterations 0
ExecutionTime = 2.05 s  ClockTime = 2 s

Time = 0.017

smoothSolver:  Solving for Ux, Initial residual = 0.114835, Final residual = 2.66952e-06, No Iterations 7
smoothSolver:  Solving for Uy, Initial residual = 0.114847, Final residual = 2.60392e-06, No Iterations 7
smoothSolver:  Solving for Uz, Initial residual = 0.0273337, Final residual = 8.29023e-06, No Iterations 5
DICPCG:  Solving for p, Initial residual = 0.436803, Final residual = 0.0169208, No Iterations 38
time step continuity errors : sum local = 8.89189e-07, global = 4.07533e-08, cumulative = -3.46398e-08
smoothSolver:  Solving for nuTilda, Initial residual = 0, Final residual = 0, No Iterations 0
ExecutionTime = 2.14 s  ClockTime = 2 s

Time = 0.018

smoothSolver:  Solving for Ux, Initial residual = 0.10646, Final residual = 2.7939e-06, No Iterations 7
smoothSolver:  Solving for Uy, Initial residual = 0.106399, Final residual = 2.74682e-06, No Iterations 7
smoothSolver:  Solving for Uz, Initial residual = 0.0206678, Final residual = 7.77543e-06, No Iterations 5
DICPCG:  Solving for p, Initial residual = 0.245972, Final residual = 0.00951691, No Iterations 38
time step continuity errors : sum local = 8.13954e-07, global = 2.43314e-08, cumulative = -1.03084e-08
smoothSolver:  Solving for nuTilda, Initial residual = 0, Final residual = 0, No Iterations 0
ExecutionTime = 2.24 s  ClockTime = 3 s

Time = 0.019

smoothSolver:  Solving for Ux, Initial residual = 0.0904516, Final residual = 9.11393e-06, No Iterations 6
smoothSolver:  Solving for Uy, Initial residual = 0.0903673, Final residual = 9.05283e-06, No Iterations 6
smoothSolver:  Solving for Uz, Initial residual = 0.0129938, Final residual = 2.85186e-06, No Iterations 6
DICPCG:  Solving for p, Initial residual = 0.0835323, Final residual = 0.00410753, No Iterations 37
time step continuity errors : sum local = 9.33816e-07, global = 4.8232e-10, cumulative = -9.8261e-09
smoothSolver:  Solving for nuTilda, Initial residual = 0, Final residual = 0, No Iterations 0
ExecutionTime = 2.32 s  ClockTime = 3 s

Time = 0.02

smoothSolver:  Solving for Ux, Initial residual = 0.0809967, Final residual = 7.46485e-06, No Iterations 6
smoothSolver:  Solving for Uy, Initial residual = 0.0809684, Final residual = 7.4674e-06, No Iterations 6
smoothSolver:  Solving for Uz, Initial residual = 0.0192896, Final residual = 3.48837e-06, No Iterations 6
DICPCG:  Solving for p, Initial residual = 0.0563745, Final residual = 0.00256011, No Iterations 35
time step continuity errors : sum local = 7.71479e-07, global = -4.01297e-08, cumulative = -4.99558e-08
smoothSolver:  Solving for nuTilda, Initial residual = 0, Final residual = 0, No Iterations 0
ExecutionTime = 2.41 s  ClockTime = 3 s

Time = 0.021

smoothSolver:  Solving for Ux, Initial residual = 0.0752306, Final residual = 7.00286e-06, No Iterations 6
smoothSolver:  Solving for Uy, Initial residual = 0.0749637, Final residual = 6.89633e-06, No Iterations 6
smoothSolver:  Solving for Uz, Initial residual = 0.0136726, Final residual = 3.26155e-06, No Iterations 6
DICPCG:  Solving for p, Initial residual = 0.0577642, Final residual = 0.00254053, No Iterations 36
time step continuity errors : sum local = 6.68882e-07, global = 2.7466e-08, cumulative = -2.24898e-08
smoothSolver:  Solving for nuTilda, Initial residual = 0, Final residual = 0, No Iterations 0
ExecutionTime = 2.49 s  ClockTime = 3 s

Time = 0.022

smoothSolver:  Solving for Ux, Initial residual = 0.0639466, Final residual = 5.8908e-06, No Iterations 6
smoothSolver:  Solving for Uy, Initial residual = 0.0638619, Final residual = 5.83518e-06, No Iterations 6
smoothSolver:  Solving for Uz, Initial residual = 0.0112578, Final residual = 9.28025e-06, No Iterations 5
DICPCG:  Solving for p, Initial residual = 0.0731047, Final residual = 0.00305694, No Iterations 32
time step continuity errors : sum local = 5.61952e-07, global = 5.26792e-08, cumulative = 3.01894e-08
smoothSolver:  Solving for nuTilda, Initial residual = 0, Final residual = 0, No Iterations 0
ExecutionTime = 2.57 s  ClockTime = 3 s

Time = 0.023

smoothSolver:  Solving for Ux, Initial residual = 0.0570819, Final residual = 6.25324e-06, No Iterations 6
smoothSolver:  Solving for Uy, Initial residual = 0.0571416, Final residual = 6.21083e-06, No Iterations 6
smoothSolver:  Solving for Uz, Initial residual = 0.0118571, Final residual = 8.15501e-06, No Iterations 5
DICPCG:  Solving for p, Initial residual = 0.0824309, Final residual = 0.00282526, No Iterations 35
time step continuity errors : sum local = 4.13183e-07, global = -9.51791e-09, cumulative = 2.06715e-08
smoothSolver:  Solving for nuTilda, Initial residual = 0, Final residual = 0, No Iterations 0
ExecutionTime = 2.66 s  ClockTime = 3 s

Time = 0.024

smoothSolver:  Solving for Ux, Initial residual = 0.0549361, Final residual = 6.53048e-06, No Iterations 6
smoothSolver:  Solving for Uy, Initial residual = 0.0548624, Final residual = 6.38887e-06, No Iterations 6
smoothSolver:  Solving for Uz, Initial residual = 0.0100075, Final residual = 8.13124e-06, No Iterations 5
DICPCG:  Solving for p, Initial residual = 0.0652281, Final residual = 0.00317546, No Iterations 33
time step continuity errors : sum local = 5.2847e-07, global = -4.32854e-08, cumulative = -2.26139e-08
smoothSolver:  Solving for nuTilda, Initial residual = 0, Final residual = 0, No Iterations 0
ExecutionTime = 2.74 s  ClockTime = 3 s

Time = 0.025

smoothSolver:  Solving for Ux, Initial residual = 0.0546376, Final residual = 6.62128e-06, No Iterations 6
smoothSolver:  Solving for Uy, Initial residual = 0.054543, Final residual = 6.56407e-06, No Iterations 6
smoothSolver:  Solving for Uz, Initial residual = 0.00850998, Final residual = 8.71796e-06, No Iterations 5
DICPCG:  Solving for p, Initial residual = 0.0478832, Final residual = 0.00150751, No Iterations 38
time step continuity errors : sum local = 3.07287e-07, global = 4.65316e-09, cumulative = -1.79607e-08
smoothSolver:  Solving for nuTilda, Initial residual = 0, Final residual = 0, No Iterations 0
ExecutionTime = 2.83 s  ClockTime = 3 s

Time = 0.026

smoothSolver:  Solving for Ux, Initial residual = 0.0514819, Final residual = 5.42123e-06, No Iterations 6
smoothSolver:  Solving for Uy, Initial residual = 0.0514132, Final residual = 5.37337e-06, No Iterations 6
smoothSolver:  Solving for Uz, Initial residual = 0.00869587, Final residual = 9.02487e-06, No Iterations 5
DICPCG:  Solving for p, Initial residual = 0.0401328, Final residual = 0.00154228, No Iterations 37
time step continuity errors : sum local = 3.36205e-07, global = -9.17644e-09, cumulative = -2.71372e-08
smoothSolver:  Solving for nuTilda, Initial residual = 0, Final residual = 0, No Iterations 0
ExecutionTime = 2.92 s  ClockTime = 3 s

Time = 0.027

smoothSolver:  Solving for Ux, Initial residual = 0.0451977, Final residual = 4.55877e-06, No Iterations 6
smoothSolver:  Solving for Uy, Initial residual = 0.0452847, Final residual = 4.53643e-06, No Iterations 6
smoothSolver:  Solving for Uz, Initial residual = 0.00783578, Final residual = 8.56234e-06, No Iterations 5
DICPCG:  Solving for p, Initial residual = 0.038451, Final residual = 0.0017404, No Iterations 34
time step continuity errors : sum local = 3.54111e-07, global = -3.45352e-08, cumulative = -6.16724e-08
smoothSolver:  Solving for nuTilda, Initial residual = 0, Final residual = 0, No Iterations 0
ExecutionTime = 3 s  ClockTime = 3 s

Time = 0.028

smoothSolver:  Solving for Ux, Initial residual = 0.0347487, Final residual = 3.72901e-06, No Iterations 6
smoothSolver:  Solving for Uy, Initial residual = 0.0347645, Final residual = 3.67357e-06, No Iterations 6
smoothSolver:  Solving for Uz, Initial residual = 0.00760136, Final residual = 7.93786e-06, No Iterations 5
DICPCG:  Solving for p, Initial residual = 0.0383, Final residual = 0.00148803, No Iterations 36
time step continuity errors : sum local = 2.70874e-07, global = -8.09413e-09, cumulative = -6.97665e-08
smoothSolver:  Solving for nuTilda, Initial residual = 0, Final residual = 0, No Iterations 0
ExecutionTime = 3.08 s  ClockTime = 3 s

Time = 0.029

smoothSolver:  Solving for Ux, Initial residual = 0.0274872, Final residual = 3.13559e-06, No Iterations 6
smoothSolver:  Solving for Uy, Initial residual = 0.0275396, Final residual = 3.12528e-06, No Iterations 6
smoothSolver:  Solving for Uz, Initial residual = 0.00734641, Final residual = 7.55511e-06, No Iterations 5
DICPCG:  Solving for p, Initial residual = 0.0357871, Final residual = 0.0011365, No Iterations 38
time step continuity errors : sum local = 1.97682e-07, global = -1.95623e-09, cumulative = -7.17228e-08
smoothSolver:  Solving for nuTilda, Initial residual = 0, Final residual = 0, No Iterations 0
ExecutionTime = 3.16 s  ClockTime = 4 s

Time = 0.03

smoothSolver:  Solving for Ux, Initial residual = 0.0285604, Final residual = 3.58183e-06, No Iterations 6
smoothSolver:  Solving for Uy, Initial residual = 0.0285925, Final residual = 3.5417e-06, No Iterations 6
smoothSolver:  Solving for Uz, Initial residual = 0.00675941, Final residual = 7.44979e-06, No Iterations 5
DICPCG:  Solving for p, Initial residual = 0.0309681, Final residual = 0.00139945, No Iterations 34
time step continuity errors : sum local = 2.52108e-07, global = 3.06563e-09, cumulative = -6.86571e-08
smoothSolver:  Solving for nuTilda, Initial residual = 0, Final residual = 0, No Iterations 0
ExecutionTime = 3.25 s  ClockTime = 4 s

Time = 0.031

smoothSolver:  Solving for Ux, Initial residual = 0.0304216, Final residual = 3.87428e-06, No Iterations 6
smoothSolver:  Solving for Uy, Initial residual = 0.0304024, Final residual = 3.82299e-06, No Iterations 6
smoothSolver:  Solving for Uz, Initial residual = 0.00625726, Final residual = 7.45761e-06, No Iterations 5
DICPCG:  Solving for p, Initial residual = 0.0268305, Final residual = 0.00133338, No Iterations 26
time step continuity errors : sum local = 2.5227e-07, global = -9.16267e-08, cumulative = -1.60284e-07
smoothSolver:  Solving for nuTilda, Initial residual = 0, Final residual = 0, No Iterations 0
ExecutionTime = 3.33 s  ClockTime = 4 s

Time = 0.032

smoothSolver:  Solving for Ux, Initial residual = 0.030116, Final residual = 3.47869e-06, No Iterations 6
smoothSolver:  Solving for Uy, Initial residual = 0.0301381, Final residual = 3.44446e-06, No Iterations 6
smoothSolver:  Solving for Uz, Initial residual = 0.00601146, Final residual = 7.35589e-06, No Iterations 5
DICPCG:  Solving for p, Initial residual = 0.0240672, Final residual = 0.00115208, No Iterations 20
time step continuity errors : sum local = 2.18176e-07, global = 5.7114e-08, cumulative = -1.0317e-07
smoothSolver:  Solving for nuTilda, Initial residual = 0, Final residual = 0, No Iterations 0
ExecutionTime = 3.4 s  ClockTime = 4 s

Time = 0.033

smoothSolver:  Solving for Ux, Initial residual = 0.0262277, Final residual = 2.94958e-06, No Iterations 6
smoothSolver:  Solving for Uy, Initial residual = 0.0262081, Final residual = 2.90143e-06, No Iterations 6
smoothSolver:  Solving for Uz, Initial residual = 0.00571601, Final residual = 7.22482e-06, No Iterations 5
DICPCG:  Solving for p, Initial residual = 0.0214269, Final residual = 0.000929452, No Iterations 29
time step continuity errors : sum local = 1.7522e-07, global = -2.60363e-08, cumulative = -1.29206e-07
smoothSolver:  Solving for nuTilda, Initial residual = 0, Final residual = 0, No Iterations 0
ExecutionTime = 3.49 s  ClockTime = 4 s

Time = 0.034

smoothSolver:  Solving for Ux, Initial residual = 0.0199615, Final residual = 9.38932e-06, No Iterations 5
smoothSolver:  Solving for Uy, Initial residual = 0.0199788, Final residual = 9.29981e-06, No Iterations 5
smoothSolver:  Solving for Uz, Initial residual = 0.00561415, Final residual = 6.95671e-06, No Iterations 5
DICPCG:  Solving for p, Initial residual = 0.0199099, Final residual = 0.000978635, No Iterations 36
time step continuity errors : sum local = 1.78226e-07, global = -7.77048e-09, cumulative = -1.36977e-07
smoothSolver:  Solving for nuTilda, Initial residual = 0, Final residual = 0, No Iterations 0
ExecutionTime = 3.57 s  ClockTime = 4 s

Time = 0.035

smoothSolver:  Solving for Ux, Initial residual = 0.0155031, Final residual = 7.39533e-06, No Iterations 5
smoothSolver:  Solving for Uy, Initial residual = 0.015557, Final residual = 7.35782e-06, No Iterations 5
smoothSolver:  Solving for Uz, Initial residual = 0.00553284, Final residual = 6.73518e-06, No Iterations 5
DICPCG:  Solving for p, Initial residual = 0.0182113, Final residual = 0.000780189, No Iterations 17
time step continuity errors : sum local = 1.39332e-07, global = -2.22037e-08, cumulative = -1.5918e-07
smoothSolver:  Solving for nuTilda, Initial residual = 0, Final residual = 0, No Iterations 0
ExecutionTime = 3.64 s  ClockTime = 4 s

Time = 0.036

smoothSolver:  Solving for Ux, Initial residual = 0.0159338, Final residual = 7.71868e-06, No Iterations 5
smoothSolver:  Solving for Uy, Initial residual = 0.0159354, Final residual = 7.69649e-06, No Iterations 5
smoothSolver:  Solving for Uz, Initial residual = 0.00534762, Final residual = 6.59472e-06, No Iterations 5
DICPCG:  Solving for p, Initial residual = 0.0163576, Final residual = 0.000811624, No Iterations 36
time step continuity errors : sum local = 1.45173e-07, global = 2.00755e-09, cumulative = -1.57173e-07
smoothSolver:  Solving for nuTilda, Initial residual = 0, Final residual = 0, No Iterations 0
ExecutionTime = 3.74 s  ClockTime = 4 s

Time = 0.037

smoothSolver:  Solving for Ux, Initial residual = 0.0173573, Final residual = 8.3241e-06, No Iterations 5
smoothSolver:  Solving for Uy, Initial residual = 0.0173586, Final residual = 8.25837e-06, No Iterations 5
smoothSolver:  Solving for Uz, Initial residual = 0.00500834, Final residual = 6.52035e-06, No Iterations 5
DICPCG:  Solving for p, Initial residual = 0.0148871, Final residual = 0.00066025, No Iterations 25
time step continuity errors : sum local = 1.20085e-07, global = -4.79358e-08, cumulative = -2.05109e-07
smoothSolver:  Solving for nuTilda, Initial residual = 0, Final residual = 0, No Iterations 0
ExecutionTime = 3.82 s  ClockTime = 4 s

Time = 0.038

smoothSolver:  Solving for Ux, Initial residual = 0.0183907, Final residual = 9.06184e-06, No Iterations 5
smoothSolver:  Solving for Uy, Initial residual = 0.0184002, Final residual = 8.97721e-06, No Iterations 5
smoothSolver:  Solving for Uz, Initial residual = 0.00477892, Final residual = 6.41605e-06, No Iterations 5
DICPCG:  Solving for p, Initial residual = 0.0135348, Final residual = 0.000569521, No Iterations 18
time step continuity errors : sum local = 1.03768e-07, global = 1.96594e-09, cumulative = -2.03143e-07
smoothSolver:  Solving for nuTilda, Initial residual = 0, Final residual = 0, No Iterations 0
ExecutionTime = 3.89 s  ClockTime = 4 s

Time = 0.039

smoothSolver:  Solving for Ux, Initial residual = 0.0161864, Final residual = 7.86891e-06, No Iterations 5
smoothSolver:  Solving for Uy, Initial residual = 0.0161681, Final residual = 7.77551e-06, No Iterations 5
smoothSolver:  Solving for Uz, Initial residual = 0.00461047, Final residual = 6.3001e-06, No Iterations 5
DICPCG:  Solving for p, Initial residual = 0.0120342, Final residual = 0.000526221, No Iterations 28
time step continuity errors : sum local = 9.57958e-08, global = -8.62159e-09, cumulative = -2.11764e-07
smoothSolver:  Solving for nuTilda, Initial residual = 0, Final residual = 0, No Iterations 0
ExecutionTime = 3.97 s  ClockTime = 4 s

Time = 0.04

smoothSolver:  Solving for Ux, Initial residual = 0.0125723, Final residual = 6.45101e-06, No Iterations 5
smoothSolver:  Solving for Uy, Initial residual = 0.0125764, Final residual = 6.40187e-06, No Iterations 5
smoothSolver:  Solving for Uz, Initial residual = 0.00452322, Final residual = 6.15237e-06, No Iterations 5
DICPCG:  Solving for p, Initial residual = 0.0109486, Final residual = 0.000398495, No Iterations 34
time step continuity errors : sum local = 7.17711e-08, global = -1.06886e-10, cumulative = -2.11871e-07
smoothSolver:  Solving for nuTilda, Initial residual = 0, Final residual = 0, No Iterations 0
ExecutionTime = 4.06 s  ClockTime = 4 s

Time = 0.041

smoothSolver:  Solving for Ux, Initial residual = 0.0101671, Final residual = 5.41159e-06, No Iterations 5
smoothSolver:  Solving for Uy, Initial residual = 0.0101527, Final residual = 5.36754e-06, No Iterations 5
smoothSolver:  Solving for Uz, Initial residual = 0.00448159, Final residual = 6.0055e-06, No Iterations 5
DICPCG:  Solving for p, Initial residual = 0.010079, Final residual = 0.000444126, No Iterations 18
time step continuity errors : sum local = 7.93097e-08, global = 1.84383e-08, cumulative = -1.93433e-07
smoothSolver:  Solving for nuTilda, Initial residual = 0, Final residual = 0, No Iterations 0
ExecutionTime = 4.13 s  ClockTime = 4 s

Time = 0.042

smoothSolver:  Solving for Ux, Initial residual = 0.00988996, Final residual = 5.12074e-06, No Iterations 5
smoothSolver:  Solving for Uy, Initial residual = 0.00988549, Final residual = 5.07838e-06, No Iterations 5
smoothSolver:  Solving for Uz, Initial residual = 0.00433339, Final residual = 5.89545e-06, No Iterations 5
DICPCG:  Solving for p, Initial residual = 0.00904596, Final residual = 0.000406862, No Iterations 14
time step continuity errors : sum local = 7.26905e-08, global = -7.54374e-09, cumulative = -2.00977e-07
smoothSolver:  Solving for nuTilda, Initial residual = 0, Final residual = 0, No Iterations 0
ExecutionTime = 4.23 s  ClockTime = 5 s

Time = 0.043

smoothSolver:  Solving for Ux, Initial residual = 0.011409, Final residual = 5.67663e-06, No Iterations 5
smoothSolver:  Solving for Uy, Initial residual = 0.0113886, Final residual = 5.61933e-06, No Iterations 5
smoothSolver:  Solving for Uz, Initial residual = 0.00418932, Final residual = 5.79376e-06, No Iterations 5
DICPCG:  Solving for p, Initial residual = 0.00855041, Final residual = 0.000353878, No Iterations 13
time step continuity errors : sum local = 6.3255e-08, global = 4.58792e-10, cumulative = -2.00518e-07
smoothSolver:  Solving for nuTilda, Initial residual = 0, Final residual = 0, No Iterations 0
ExecutionTime = 4.36 s  ClockTime = 5 s

Time = 0.044

smoothSolver:  Solving for Ux, Initial residual = 0.0119879, Final residual = 6.00093e-06, No Iterations 5
smoothSolver:  Solving for Uy, Initial residual = 0.0119599, Final residual = 5.94494e-06, No Iterations 5
smoothSolver:  Solving for Uz, Initial residual = 0.00406044, Final residual = 5.69278e-06, No Iterations 5
DICPCG:  Solving for p, Initial residual = 0.00799902, Final residual = 0.000361674, No Iterations 14
time step continuity errors : sum local = 6.46718e-08, global = 1.81119e-08, cumulative = -1.82406e-07
smoothSolver:  Solving for nuTilda, Initial residual = 0, Final residual = 0, No Iterations 0
ExecutionTime = 4.46 s  ClockTime = 5 s

Time = 0.045

smoothSolver:  Solving for Ux, Initial residual = 0.010654, Final residual = 5.46184e-06, No Iterations 5
smoothSolver:  Solving for Uy, Initial residual = 0.010641, Final residual = 5.41867e-06, No Iterations 5
smoothSolver:  Solving for Uz, Initial residual = 0.00393816, Final residual = 5.5921e-06, No Iterations 5
DICPCG:  Solving for p, Initial residual = 0.00710474, Final residual = 0.000280283, No Iterations 35
time step continuity errors : sum local = 5.01127e-08, global = 5.61293e-10, cumulative = -1.81845e-07
smoothSolver:  Solving for nuTilda, Initial residual = 0, Final residual = 0, No Iterations 0
ExecutionTime = 4.57 s  ClockTime = 5 s

Time = 0.046

smoothSolver:  Solving for Ux, Initial residual = 0.00853978, Final residual = 4.50722e-06, No Iterations 5
smoothSolver:  Solving for Uy, Initial residual = 0.00852798, Final residual = 4.46015e-06, No Iterations 5
smoothSolver:  Solving for Uz, Initial residual = 0.00388138, Final residual = 5.48153e-06, No Iterations 5
DICPCG:  Solving for p, Initial residual = 0.00640466, Final residual = 0.000228387, No Iterations 35
time step continuity errors : sum local = 4.06245e-08, global = 9.03985e-10, cumulative = -1.80941e-07
smoothSolver:  Solving for nuTilda, Initial residual = 0, Final residual = 0, No Iterations 0
ExecutionTime = 4.68 s  ClockTime = 5 s

Time = 0.047

smoothSolver:  Solving for Ux, Initial residual = 0.00704384, Final residual = 4.00812e-06, No Iterations 5
smoothSolver:  Solving for Uy, Initial residual = 0.0070341, Final residual = 3.97638e-06, No Iterations 5
smoothSolver:  Solving for Uz, Initial residual = 0.0038142, Final residual = 5.37777e-06, No Iterations 5
DICPCG:  Solving for p, Initial residual = 0.00587062, Final residual = 0.000283997, No Iterations 17
time step continuity errors : sum local = 5.0342e-08, global = 7.93511e-09, cumulative = -1.73005e-07
smoothSolver:  Solving for nuTilda, Initial residual = 0, Final residual = 0, No Iterations 0
ExecutionTime = 4.76 s  ClockTime = 5 s

Time = 0.048

smoothSolver:  Solving for Ux, Initial residual = 0.00689982, Final residual = 3.89362e-06, No Iterations 5
smoothSolver:  Solving for Uy, Initial residual = 0.00690425, Final residual = 3.86384e-06, No Iterations 5
smoothSolver:  Solving for Uz, Initial residual = 0.00369922, Final residual = 5.28961e-06, No Iterations 5
DICPCG:  Solving for p, Initial residual = 0.00532727, Final residual = 0.000196389, No Iterations 18
time step continuity errors : sum local = 3.48384e-08, global = 7.15511e-09, cumulative = -1.6585e-07
smoothSolver:  Solving for nuTilda, Initial residual = 0, Final residual = 0, No Iterations 0
ExecutionTime = 4.84 s  ClockTime = 5 s

Time = 0.049

smoothSolver:  Solving for Ux, Initial residual = 0.00759096, Final residual = 4.06945e-06, No Iterations 5
smoothSolver:  Solving for Uy, Initial residual = 0.00758854, Final residual = 4.02937e-06, No Iterations 5
smoothSolver:  Solving for Uz, Initial residual = 0.00360246, Final residual = 5.19946e-06, No Iterations 5
DICPCG:  Solving for p, Initial residual = 0.00494985, Final residual = 0.000239003, No Iterations 28
time step continuity errors : sum local = 4.2417e-08, global = 8.05633e-09, cumulative = -1.57794e-07
smoothSolver:  Solving for nuTilda, Initial residual = 0, Final residual = 0, No Iterations 0
ExecutionTime = 4.94 s  ClockTime = 5 s

Time = 0.05

smoothSolver:  Solving for Ux, Initial residual = 0.00789283, Final residual = 4.11064e-06, No Iterations 5
smoothSolver:  Solving for Uy, Initial residual = 0.0078892, Final residual = 4.07797e-06, No Iterations 5
smoothSolver:  Solving for Uz, Initial residual = 0.00354768, Final residual = 5.10487e-06, No Iterations 5
DICPCG:  Solving for p, Initial residual = 0.00473691, Final residual = 0.000165543, No Iterations 34
time step continuity errors : sum local = 2.93072e-08, global = -2.72795e-10, cumulative = -1.58067e-07
smoothSolver:  Solving for nuTilda, Initial residual = 0, Final residual = 0, No Iterations 0
ExecutionTime = 5.05 s  ClockTime = 5 s

Time = 0.051

smoothSolver:  Solving for Ux, Initial residual = 0.00740661, Final residual = 4.03594e-06, No Iterations 5
smoothSolver:  Solving for Uy, Initial residual = 0.00739621, Final residual = 4.00663e-06, No Iterations 5
smoothSolver:  Solving for Uz, Initial residual = 0.00347708, Final residual = 5.01516e-06, No Iterations 5
DICPCG:  Solving for p, Initial residual = 0.00435633, Final residual = 0.0001893, No Iterations 20
time step continuity errors : sum local = 3.3411e-08, global = 7.76595e-09, cumulative = -1.50301e-07
smoothSolver:  Solving for nuTilda, Initial residual = 0, Final residual = 0, No Iterations 0
ExecutionTime = 5.14 s  ClockTime = 5 s

Time = 0.052

smoothSolver:  Solving for Ux, Initial residual = 0.00619043, Final residual = 3.57277e-06, No Iterations 5
smoothSolver:  Solving for Uy, Initial residual = 0.0061879, Final residual = 3.54763e-06, No Iterations 5
smoothSolver:  Solving for Uz, Initial residual = 0.00337338, Final residual = 4.93397e-06, No Iterations 5
DICPCG:  Solving for p, Initial residual = 0.00383994, Final residual = 0.000172667, No Iterations 35
time step continuity errors : sum local = 3.04637e-08, global = 4.35414e-10, cumulative = -1.49865e-07
smoothSolver:  Solving for nuTilda, Initial residual = 0, Final residual = 0, No Iterations 0
ExecutionTime = 5.25 s  ClockTime = 5 s

Time = 0.053

smoothSolver:  Solving for Ux, Initial residual = 0.00521208, Final residual = 3.26827e-06, No Iterations 5
smoothSolver:  Solving for Uy, Initial residual = 0.00521117, Final residual = 3.24321e-06, No Iterations 5
smoothSolver:  Solving for Uz, Initial residual = 0.00332052, Final residual = 4.8456e-06, No Iterations 5
DICPCG:  Solving for p, Initial residual = 0.00360654, Final residual = 0.00016609, No Iterations 23
time step continuity errors : sum local = 2.92337e-08, global = 1.20412e-08, cumulative = -1.37824e-07
smoothSolver:  Solving for nuTilda, Initial residual = 0, Final residual = 0, No Iterations 0
ExecutionTime = 5.34 s  ClockTime = 6 s

Time = 0.054

smoothSolver:  Solving for Ux, Initial residual = 0.00503063, Final residual = 3.11971e-06, No Iterations 5
smoothSolver:  Solving for Uy, Initial residual = 0.00502985, Final residual = 3.1012e-06, No Iterations 5
smoothSolver:  Solving for Uz, Initial residual = 0.0032395, Final residual = 4.76604e-06, No Iterations 5
DICPCG:  Solving for p, Initial residual = 0.00339089, Final residual = 0.000141506, No Iterations 33
time step continuity errors : sum local = 2.49125e-08, global = 5.65294e-10, cumulative = -1.37259e-07
smoothSolver:  Solving for nuTilda, Initial residual = 0, Final residual = 0, No Iterations 0
ExecutionTime = 5.49 s  ClockTime = 6 s

Time = 0.055

smoothSolver:  Solving for Ux, Initial residual = 0.00537139, Final residual = 3.24445e-06, No Iterations 5
smoothSolver:  Solving for Uy, Initial residual = 0.00537338, Final residual = 3.21909e-06, No Iterations 5
smoothSolver:  Solving for Uz, Initial residual = 0.00318815, Final residual = 4.68756e-06, No Iterations 5
DICPCG:  Solving for p, Initial residual = 0.00315408, Final residual = 0.000133348, No Iterations 27
time step continuity errors : sum local = 2.34336e-08, global = -3.40713e-11, cumulative = -1.37293e-07
smoothSolver:  Solving for nuTilda, Initial residual = 0, Final residual = 0, No Iterations 0
ExecutionTime = 5.59 s  ClockTime = 6 s

Time = 0.056

smoothSolver:  Solving for Ux, Initial residual = 0.005531, Final residual = 3.21469e-06, No Iterations 5
smoothSolver:  Solving for Uy, Initial residual = 0.00552879, Final residual = 3.19173e-06, No Iterations 5
smoothSolver:  Solving for Uz, Initial residual = 0.00311667, Final residual = 4.61321e-06, No Iterations 5
DICPCG:  Solving for p, Initial residual = 0.00302738, Final residual = 0.000151074, No Iterations 14
time step continuity errors : sum local = 2.65176e-08, global = 9.01227e-09, cumulative = -1.28281e-07
smoothSolver:  Solving for nuTilda, Initial residual = 0, Final residual = 0, No Iterations 0
ExecutionTime = 5.67 s  ClockTime = 6 s

Time = 0.057

smoothSolver:  Solving for Ux, Initial residual = 0.00538259, Final residual = 3.11966e-06, No Iterations 5
smoothSolver:  Solving for Uy, Initial residual = 0.00537925, Final residual = 3.10207e-06, No Iterations 5
smoothSolver:  Solving for Uz, Initial residual = 0.00303152, Final residual = 4.54248e-06, No Iterations 5
DICPCG:  Solving for p, Initial residual = 0.00288083, Final residual = 0.000140588, No Iterations 31
time step continuity errors : sum local = 2.46798e-08, global = -1.67761e-09, cumulative = -1.29958e-07
smoothSolver:  Solving for nuTilda, Initial residual = 0, Final residual = 0, No Iterations 0
ExecutionTime = 5.76 s  ClockTime = 6 s

Time = 0.058

smoothSolver:  Solving for Ux, Initial residual = 0.00478663, Final residual = 2.91018e-06, No Iterations 5
smoothSolver:  Solving for Uy, Initial residual = 0.00478683, Final residual = 2.89243e-06, No Iterations 5
smoothSolver:  Solving for Uz, Initial residual = 0.00299313, Final residual = 4.46518e-06, No Iterations 5
DICPCG:  Solving for p, Initial residual = 0.00264507, Final residual = 9.21199e-05, No Iterations 23
time step continuity errors : sum local = 1.61251e-08, global = 3.62489e-09, cumulative = -1.26333e-07
smoothSolver:  Solving for nuTilda, Initial residual = 0, Final residual = 0, No Iterations 0
ExecutionTime = 5.84 s  ClockTime = 6 s

Time = 0.059

smoothSolver:  Solving for Ux, Initial residual = 0.00409728, Final residual = 2.70983e-06, No Iterations 5
smoothSolver:  Solving for Uy, Initial residual = 0.0040959, Final residual = 2.69204e-06, No Iterations 5
smoothSolver:  Solving for Uz, Initial residual = 0.00295101, Final residual = 4.38859e-06, No Iterations 5
DICPCG:  Solving for p, Initial residual = 0.00245179, Final residual = 0.000105588, No Iterations 26
time step continuity errors : sum local = 1.84413e-08, global = -9.59388e-10, cumulative = -1.27293e-07
smoothSolver:  Solving for nuTilda, Initial residual = 0, Final residual = 0, No Iterations 0
ExecutionTime = 5.93 s  ClockTime = 6 s

Time = 0.06

smoothSolver:  Solving for Ux, Initial residual = 0.00396848, Final residual = 2.63838e-06, No Iterations 5
smoothSolver:  Solving for Uy, Initial residual = 0.0039688, Final residual = 2.62263e-06, No Iterations 5
smoothSolver:  Solving for Uz, Initial residual = 0.00288509, Final residual = 4.31873e-06, No Iterations 5
DICPCG:  Solving for p, Initial residual = 0.0023072, Final residual = 0.000106524, No Iterations 9
time step continuity errors : sum local = 1.85901e-08, global = 9.83839e-10, cumulative = -1.26309e-07
smoothSolver:  Solving for nuTilda, Initial residual = 0, Final residual = 0, No Iterations 0
ExecutionTime = 6.01 s  ClockTime = 6 s

Time = 0.061

smoothSolver:  Solving for Ux, Initial residual = 0.00401647, Final residual = 2.61453e-06, No Iterations 5
smoothSolver:  Solving for Uy, Initial residual = 0.00401573, Final residual = 2.59648e-06, No Iterations 5
smoothSolver:  Solving for Uz, Initial residual = 0.00280678, Final residual = 4.25462e-06, No Iterations 5
DICPCG:  Solving for p, Initial residual = 0.00219726, Final residual = 8.98105e-05, No Iterations 33
time step continuity errors : sum local = 1.56807e-08, global = 5.43881e-10, cumulative = -1.25765e-07
smoothSolver:  Solving for nuTilda, Initial residual = 0, Final residual = 0, No Iterations 0
ExecutionTime = 6.11 s  ClockTime = 6 s

Time = 0.062

smoothSolver:  Solving for Ux, Initial residual = 0.00411194, Final residual = 2.6207e-06, No Iterations 5
smoothSolver:  Solving for Uy, Initial residual = 0.00411137, Final residual = 2.60289e-06, No Iterations 5
smoothSolver:  Solving for Uz, Initial residual = 0.00275742, Final residual = 4.18944e-06, No Iterations 5
DICPCG:  Solving for p, Initial residual = 0.00216786, Final residual = 0.000108374, No Iterations 25
time step continuity errors : sum local = 1.89021e-08, global = 3.38299e-09, cumulative = -1.22382e-07
smoothSolver:  Solving for nuTilda, Initial residual = 0, Final residual = 0, No Iterations 0
ExecutionTime = 6.21 s  ClockTime = 6 s

Time = 0.063

smoothSolver:  Solving for Ux, Initial residual = 0.00407466, Final residual = 9.99035e-06, No Iterations 4
smoothSolver:  Solving for Uy, Initial residual = 0.00407302, Final residual = 9.98572e-06, No Iterations 4
smoothSolver:  Solving for Uz, Initial residual = 0.00271331, Final residual = 4.12407e-06, No Iterations 5
DICPCG:  Solving for p, Initial residual = 0.00206838, Final residual = 9.05822e-05, No Iterations 32
time step continuity errors : sum local = 1.57768e-08, global = -2.23691e-10, cumulative = -1.22606e-07
smoothSolver:  Solving for nuTilda, Initial residual = 0, Final residual = 0, No Iterations 0
ExecutionTime = 6.32 s  ClockTime = 6 s

Time = 0.064

smoothSolver:  Solving for Ux, Initial residual = 0.00382995, Final residual = 9.5239e-06, No Iterations 4
smoothSolver:  Solving for Uy, Initial residual = 0.00382976, Final residual = 9.52912e-06, No Iterations 4
smoothSolver:  Solving for Uz, Initial residual = 0.00266348, Final residual = 4.06082e-06, No Iterations 5
DICPCG:  Solving for p, Initial residual = 0.00193138, Final residual = 8.5325e-05, No Iterations 33
time step continuity errors : sum local = 1.48401e-08, global = 1.29319e-10, cumulative = -1.22476e-07
smoothSolver:  Solving for nuTilda, Initial residual = 0, Final residual = 0, No Iterations 0
ExecutionTime = 6.44 s  ClockTime = 7 s

Time = 0.065

smoothSolver:  Solving for Ux, Initial residual = 0.00349705, Final residual = 8.99989e-06, No Iterations 4
smoothSolver:  Solving for Uy, Initial residual = 0.00349634, Final residual = 9.00379e-06, No Iterations 4
smoothSolver:  Solving for Uz, Initial residual = 0.00261343, Final residual = 3.99786e-06, No Iterations 5
DICPCG:  Solving for p, Initial residual = 0.00184557, Final residual = 8.8068e-05, No Iterations 24
time step continuity errors : sum local = 1.52999e-08, global = -1.94561e-09, cumulative = -1.24422e-07
smoothSolver:  Solving for nuTilda, Initial residual = 0, Final residual = 0, No Iterations 0
ExecutionTime = 6.55 s  ClockTime = 7 s

Time = 0.066

smoothSolver:  Solving for Ux, Initial residual = 0.0033411, Final residual = 8.76306e-06, No Iterations 4
smoothSolver:  Solving for Uy, Initial residual = 0.00334079, Final residual = 8.77301e-06, No Iterations 4
smoothSolver:  Solving for Uz, Initial residual = 0.00256101, Final residual = 3.93708e-06, No Iterations 5
DICPCG:  Solving for p, Initial residual = 0.00176551, Final residual = 8.02201e-05, No Iterations 33
time step continuity errors : sum local = 1.39255e-08, global = 1.19483e-09, cumulative = -1.23227e-07
smoothSolver:  Solving for nuTilda, Initial residual = 0, Final residual = 0, No Iterations 0
ExecutionTime = 6.64 s  ClockTime = 7 s

Time = 0.067

smoothSolver:  Solving for Ux, Initial residual = 0.00335586, Final residual = 8.8569e-06, No Iterations 4
smoothSolver:  Solving for Uy, Initial residual = 0.00335465, Final residual = 8.85674e-06, No Iterations 4
smoothSolver:  Solving for Uz, Initial residual = 0.00251571, Final residual = 3.87698e-06, No Iterations 5
DICPCG:  Solving for p, Initial residual = 0.00170588, Final residual = 7.1089e-05, No Iterations 25
time step continuity errors : sum local = 1.23303e-08, global = 3.2737e-10, cumulative = -1.229e-07
smoothSolver:  Solving for nuTilda, Initial residual = 0, Final residual = 0, No Iterations 0
ExecutionTime = 6.73 s  ClockTime = 7 s

Time = 0.068

smoothSolver:  Solving for Ux, Initial residual = 0.00332419, Final residual = 8.66018e-06, No Iterations 4
smoothSolver:  Solving for Uy, Initial residual = 0.00332272, Final residual = 8.65111e-06, No Iterations 4
smoothSolver:  Solving for Uz, Initial residual = 0.00246952, Final residual = 3.81923e-06, No Iterations 5
DICPCG:  Solving for p, Initial residual = 0.00168781, Final residual = 8.08629e-05, No Iterations 32
time step continuity errors : sum local = 1.40136e-08, global = -2.41071e-10, cumulative = -1.23141e-07
smoothSolver:  Solving for nuTilda, Initial residual = 0, Final residual = 0, No Iterations 0
ExecutionTime = 6.82 s  ClockTime = 7 s

Time = 0.069

smoothSolver:  Solving for Ux, Initial residual = 0.00324545, Final residual = 8.35618e-06, No Iterations 4
smoothSolver:  Solving for Uy, Initial residual = 0.00324381, Final residual = 8.34395e-06, No Iterations 4
smoothSolver:  Solving for Uz, Initial residual = 0.00242259, Final residual = 3.76342e-06, No Iterations 5
DICPCG:  Solving for p, Initial residual = 0.00164188, Final residual = 6.52322e-05, No Iterations 28
time step continuity errors : sum local = 1.12949e-08, global = 7.74399e-10, cumulative = -1.22367e-07
smoothSolver:  Solving for nuTilda, Initial residual = 0, Final residual = 0, No Iterations 0
ExecutionTime = 6.9 s  ClockTime = 7 s

Time = 0.07

smoothSolver:  Solving for Ux, Initial residual = 0.00313093, Final residual = 8.10506e-06, No Iterations 4
smoothSolver:  Solving for Uy, Initial residual = 0.0031312, Final residual = 8.10654e-06, No Iterations 4
smoothSolver:  Solving for Uz, Initial residual = 0.00237653, Final residual = 3.70869e-06, No Iterations 5
DICPCG:  Solving for p, Initial residual = 0.00156709, Final residual = 5.68634e-05, No Iterations 25
time step continuity errors : sum local = 9.83744e-09, global = -7.07717e-11, cumulative = -1.22437e-07
smoothSolver:  Solving for nuTilda, Initial residual = 0, Final residual = 0, No Iterations 0
ExecutionTime = 7.01 s  ClockTime = 7 s

Time = 0.071

smoothSolver:  Solving for Ux, Initial residual = 0.00299236, Final residual = 7.84401e-06, No Iterations 4
smoothSolver:  Solving for Uy, Initial residual = 0.00299175, Final residual = 7.84728e-06, No Iterations 4
smoothSolver:  Solving for Uz, Initial residual = 0.00233549, Final residual = 3.65407e-06, No Iterations 5
DICPCG:  Solving for p, Initial residual = 0.00149655, Final residual = 5.54854e-05, No Iterations 23
time step continuity errors : sum local = 9.59069e-09, global = -4.40635e-10, cumulative = -1.22878e-07
smoothSolver:  Solving for nuTilda, Initial residual = 0, Final residual = 0, No Iterations 0
ExecutionTime = 7.11 s  ClockTime = 7 s

Time = 0.072

smoothSolver:  Solving for Ux, Initial residual = 0.00290047, Final residual = 7.63755e-06, No Iterations 4
smoothSolver:  Solving for Uy, Initial residual = 0.00289952, Final residual = 7.6323e-06, No Iterations 4
smoothSolver:  Solving for Uz, Initial residual = 0.00229549, Final residual = 3.60008e-06, No Iterations 5
DICPCG:  Solving for p, Initial residual = 0.00144858, Final residual = 7.06802e-05, No Iterations 27
time step continuity errors : sum local = 1.22072e-08, global = -1.73186e-09, cumulative = -1.2461e-07
smoothSolver:  Solving for nuTilda, Initial residual = 0, Final residual = 0, No Iterations 0
ExecutionTime = 7.21 s  ClockTime = 7 s

Time = 0.073

smoothSolver:  Solving for Ux, Initial residual = 0.00284909, Final residual = 7.49668e-06, No Iterations 4
smoothSolver:  Solving for Uy, Initial residual = 0.00284806, Final residual = 7.48845e-06, No Iterations 4
smoothSolver:  Solving for Uz, Initial residual = 0.00225187, Final residual = 3.54753e-06, No Iterations 5
DICPCG:  Solving for p, Initial residual = 0.0013931, Final residual = 5.34552e-05, No Iterations 25
time step continuity errors : sum local = 9.22595e-09, global = -4.24792e-10, cumulative = -1.25035e-07
smoothSolver:  Solving for nuTilda, Initial residual = 0, Final residual = 0, No Iterations 0
ExecutionTime = 7.29 s  ClockTime = 7 s

Time = 0.074

smoothSolver:  Solving for Ux, Initial residual = 0.00281927, Final residual = 7.42281e-06, No Iterations 4
smoothSolver:  Solving for Uy, Initial residual = 0.00281996, Final residual = 7.42447e-06, No Iterations 4
smoothSolver:  Solving for Uz, Initial residual = 0.00221127, Final residual = 3.49578e-06, No Iterations 5
DICPCG:  Solving for p, Initial residual = 0.00138895, Final residual = 6.27542e-05, No Iterations 9
time step continuity errors : sum local = 1.08232e-08, global = 6.39512e-09, cumulative = -1.18639e-07
smoothSolver:  Solving for nuTilda, Initial residual = 0, Final residual = 0, No Iterations 0
ExecutionTime = 7.36 s  ClockTime = 7 s

Time = 0.075

smoothSolver:  Solving for Ux, Initial residual = 0.00274939, Final residual = 7.32333e-06, No Iterations 4
smoothSolver:  Solving for Uy, Initial residual = 0.00274911, Final residual = 7.32441e-06, No Iterations 4
smoothSolver:  Solving for Uz, Initial residual = 0.00215821, Final residual = 3.44701e-06, No Iterations 5
DICPCG:  Solving for p, Initial residual = 0.00136905, Final residual = 6.83137e-05, No Iterations 26
time step continuity errors : sum local = 1.17853e-08, global = -4.11696e-10, cumulative = -1.19051e-07
smoothSolver:  Solving for nuTilda, Initial residual = 0, Final residual = 0, No Iterations 0
ExecutionTime = 7.44 s  ClockTime = 8 s

Time = 0.076

smoothSolver:  Solving for Ux, Initial residual = 0.0026686, Final residual = 7.17971e-06, No Iterations 4
smoothSolver:  Solving for Uy, Initial residual = 0.00266843, Final residual = 7.18035e-06, No Iterations 4
smoothSolver:  Solving for Uz, Initial residual = 0.00213641, Final residual = 3.39585e-06, No Iterations 5
DICPCG:  Solving for p, Initial residual = 0.00131975, Final residual = 5.57843e-05, No Iterations 24
time step continuity errors : sum local = 9.60837e-09, global = -3.26026e-10, cumulative = -1.19377e-07
smoothSolver:  Solving for nuTilda, Initial residual = 0, Final residual = 0, No Iterations 0
ExecutionTime = 7.53 s  ClockTime = 8 s

Time = 0.077

smoothSolver:  Solving for Ux, Initial residual = 0.00258192, Final residual = 6.97868e-06, No Iterations 4
smoothSolver:  Solving for Uy, Initial residual = 0.0025809, Final residual = 6.9773e-06, No Iterations 4
smoothSolver:  Solving for Uz, Initial residual = 0.00210739, Final residual = 3.3453e-06, No Iterations 5
DICPCG:  Solving for p, Initial residual = 0.0012714, Final residual = 5.29537e-05, No Iterations 8
time step continuity errors : sum local = 9.11061e-09, global = 4.68851e-09, cumulative = -1.14689e-07
smoothSolver:  Solving for nuTilda, Initial residual = 0, Final residual = 0, No Iterations 0
ExecutionTime = 7.61 s  ClockTime = 8 s

Time = 0.078

smoothSolver:  Solving for Ux, Initial residual = 0.00251304, Final residual = 6.66977e-06, No Iterations 4
smoothSolver:  Solving for Uy, Initial residual = 0.00251268, Final residual = 6.66383e-06, No Iterations 4
smoothSolver:  Solving for Uz, Initial residual = 0.00205465, Final residual = 3.29811e-06, No Iterations 5
DICPCG:  Solving for p, Initial residual = 0.00124643, Final residual = 5.85384e-05, No Iterations 31
time step continuity errors : sum local = 1.00745e-08, global = 8.62086e-10, cumulative = -1.13827e-07
smoothSolver:  Solving for nuTilda, Initial residual = 0, Final residual = 0, No Iterations 0
ExecutionTime = 7.7 s  ClockTime = 8 s

Time = 0.079

smoothSolver:  Solving for Ux, Initial residual = 0.00247185, Final residual = 6.51083e-06, No Iterations 4
smoothSolver:  Solving for Uy, Initial residual = 0.00247195, Final residual = 6.50651e-06, No Iterations 4
smoothSolver:  Solving for Uz, Initial residual = 0.00202049, Final residual = 3.24967e-06, No Iterations 5
DICPCG:  Solving for p, Initial residual = 0.00122437, Final residual = 5.81477e-05, No Iterations 31
time step continuity errors : sum local = 1e-08, global = 7.75684e-10, cumulative = -1.13051e-07
smoothSolver:  Solving for nuTilda, Initial residual = 0, Final residual = 0, No Iterations 0
ExecutionTime = 7.79 s  ClockTime = 8 s

Time = 0.08

smoothSolver:  Solving for Ux, Initial residual = 0.00244219, Final residual = 6.47675e-06, No Iterations 4
smoothSolver:  Solving for Uy, Initial residual = 0.00244272, Final residual = 6.47623e-06, No Iterations 4
smoothSolver:  Solving for Uz, Initial residual = 0.00198532, Final residual = 3.2021e-06, No Iterations 5
DICPCG:  Solving for p, Initial residual = 0.00120313, Final residual = 5.66812e-05, No Iterations 8
time step continuity errors : sum local = 9.74196e-09, global = 5.56319e-09, cumulative = -1.07488e-07
smoothSolver:  Solving for nuTilda, Initial residual = 0, Final residual = 0, No Iterations 0
ExecutionTime = 7.86 s  ClockTime = 8 s

Time = 0.081

smoothSolver:  Solving for Ux, Initial residual = 0.00239699, Final residual = 6.38228e-06, No Iterations 4
smoothSolver:  Solving for Uy, Initial residual = 0.00239758, Final residual = 6.38294e-06, No Iterations 4
smoothSolver:  Solving for Uz, Initial residual = 0.0019381, Final residual = 3.15733e-06, No Iterations 5
DICPCG:  Solving for p, Initial residual = 0.00117367, Final residual = 5.27233e-05, No Iterations 24
time step continuity errors : sum local = 9.06484e-09, global = -1.03705e-09, cumulative = -1.08525e-07
smoothSolver:  Solving for nuTilda, Initial residual = 0, Final residual = 0, No Iterations 0
ExecutionTime = 7.94 s  ClockTime = 8 s

Time = 0.082

smoothSolver:  Solving for Ux, Initial residual = 0.00232948, Final residual = 6.24861e-06, No Iterations 4
smoothSolver:  Solving for Uy, Initial residual = 0.00232873, Final residual = 6.24741e-06, No Iterations 4
smoothSolver:  Solving for Uz, Initial residual = 0.0019159, Final residual = 3.11021e-06, No Iterations 5
DICPCG:  Solving for p, Initial residual = 0.00114176, Final residual = 5.70179e-05, No Iterations 21
time step continuity errors : sum local = 9.79277e-09, global = 4.18437e-10, cumulative = -1.08106e-07
smoothSolver:  Solving for nuTilda, Initial residual = 0, Final residual = 0, No Iterations 0
ExecutionTime = 8.03 s  ClockTime = 8 s

Time = 0.083

smoothSolver:  Solving for Ux, Initial residual = 0.00225369, Final residual = 6.05028e-06, No Iterations 4
smoothSolver:  Solving for Uy, Initial residual = 0.00225339, Final residual = 6.0495e-06, No Iterations 4
smoothSolver:  Solving for Uz, Initial residual = 0.00188917, Final residual = 3.0638e-06, No Iterations 5
DICPCG:  Solving for p, Initial residual = 0.001108, Final residual = 5.0342e-05, No Iterations 8
time step continuity errors : sum local = 8.64017e-09, global = 4.17199e-09, cumulative = -1.03934e-07
smoothSolver:  Solving for nuTilda, Initial residual = 0, Final residual = 0, No Iterations 0
ExecutionTime = 8.12 s  ClockTime = 8 s

Time = 0.084

smoothSolver:  Solving for Ux, Initial residual = 0.00219199, Final residual = 5.82316e-06, No Iterations 4
smoothSolver:  Solving for Uy, Initial residual = 0.00219202, Final residual = 5.81991e-06, No Iterations 4
smoothSolver:  Solving for Uz, Initial residual = 0.00184317, Final residual = 3.02105e-06, No Iterations 5
DICPCG:  Solving for p, Initial residual = 0.00108942, Final residual = 4.65285e-05, No Iterations 28
time step continuity errors : sum local = 7.98851e-09, global = 8.40429e-10, cumulative = -1.03094e-07
smoothSolver:  Solving for nuTilda, Initial residual = 0, Final residual = 0, No Iterations 0
ExecutionTime = 8.22 s  ClockTime = 8 s

Time = 0.085

smoothSolver:  Solving for Ux, Initial residual = 0.00217842, Final residual = 5.71866e-06, No Iterations 4
smoothSolver:  Solving for Uy, Initial residual = 0.00217817, Final residual = 5.71646e-06, No Iterations 4
smoothSolver:  Solving for Uz, Initial residual = 0.00181148, Final residual = 2.97803e-06, No Iterations 5
DICPCG:  Solving for p, Initial residual = 0.0010737, Final residual = 4.74622e-05, No Iterations 31
time step continuity errors : sum local = 8.14438e-09, global = -1.87013e-10, cumulative = -1.03281e-07
smoothSolver:  Solving for nuTilda, Initial residual = 0, Final residual = 0, No Iterations 0
ExecutionTime = 8.46 s  ClockTime = 9 s

Time = 0.086

smoothSolver:  Solving for Ux, Initial residual = 0.00214942, Final residual = 5.64074e-06, No Iterations 4
smoothSolver:  Solving for Uy, Initial residual = 0.00214967, Final residual = 5.63883e-06, No Iterations 4
smoothSolver:  Solving for Uz, Initial residual = 0.00178094, Final residual = 2.93457e-06, No Iterations 5
DICPCG:  Solving for p, Initial residual = 0.00104315, Final residual = 4.76209e-05, No Iterations 8
time step continuity errors : sum local = 8.16778e-09, global = 4.54259e-09, cumulative = -9.87383e-08
smoothSolver:  Solving for nuTilda, Initial residual = 0, Final residual = 0, No Iterations 0
ExecutionTime = 8.63 s  ClockTime = 9 s

Time = 0.087

smoothSolver:  Solving for Ux, Initial residual = 0.00208866, Final residual = 5.50729e-06, No Iterations 4
smoothSolver:  Solving for Uy, Initial residual = 0.00208952, Final residual = 5.50586e-06, No Iterations 4
smoothSolver:  Solving for Uz, Initial residual = 0.001739, Final residual = 2.89312e-06, No Iterations 5
DICPCG:  Solving for p, Initial residual = 0.00101747, Final residual = 4.70754e-05, No Iterations 24
time step continuity errors : sum local = 8.07684e-09, global = 8.14389e-10, cumulative = -9.79239e-08
smoothSolver:  Solving for nuTilda, Initial residual = 0, Final residual = 0, No Iterations 0
ExecutionTime = 8.76 s  ClockTime = 9 s

Time = 0.088

smoothSolver:  Solving for Ux, Initial residual = 0.00202763, Final residual = 5.39965e-06, No Iterations 4
smoothSolver:  Solving for Uy, Initial residual = 0.00202732, Final residual = 5.3958e-06, No Iterations 4
smoothSolver:  Solving for Uz, Initial residual = 0.00172038, Final residual = 9.90694e-06, No Iterations 4
DICPCG:  Solving for p, Initial residual = 0.00099896, Final residual = 4.7277e-05, No Iterations 31
time step continuity errors : sum local = 8.10497e-09, global = 6.01967e-10, cumulative = -9.7322e-08
smoothSolver:  Solving for nuTilda, Initial residual = 0, Final residual = 0, No Iterations 0
ExecutionTime = 8.84 s  ClockTime = 9 s

Time = 0.089

smoothSolver:  Solving for Ux, Initial residual = 0.00196913, Final residual = 5.2323e-06, No Iterations 4
smoothSolver:  Solving for Uy, Initial residual = 0.00196884, Final residual = 5.22759e-06, No Iterations 4
smoothSolver:  Solving for Uz, Initial residual = 0.00169237, Final residual = 9.75905e-06, No Iterations 4
DICPCG:  Solving for p, Initial residual = 0.000976602, Final residual = 4.29792e-05, No Iterations 8
time step continuity errors : sum local = 7.36436e-09, global = 3.87511e-09, cumulative = -9.34469e-08
smoothSolver:  Solving for nuTilda, Initial residual = 0, Final residual = 0, No Iterations 0
ExecutionTime = 8.91 s  ClockTime = 9 s

Time = 0.09

smoothSolver:  Solving for Ux, Initial residual = 0.00193464, Final residual = 5.10581e-06, No Iterations 4
smoothSolver:  Solving for Uy, Initial residual = 0.00193515, Final residual = 5.10541e-06, No Iterations 4
smoothSolver:  Solving for Uz, Initial residual = 0.00165189, Final residual = 9.61677e-06, No Iterations 4
DICPCG:  Solving for p, Initial residual = 0.000967745, Final residual = 4.5591e-05, No Iterations 31
time step continuity errors : sum local = 7.81442e-09, global = 2.26355e-10, cumulative = -9.32205e-08
smoothSolver:  Solving for nuTilda, Initial residual = 0, Final residual = 0, No Iterations 0
ExecutionTime = 9.01 s  ClockTime = 9 s

Time = 0.091

smoothSolver:  Solving for Ux, Initial residual = 0.00190846, Final residual = 5.03646e-06, No Iterations 4
smoothSolver:  Solving for Uy, Initial residual = 0.00190905, Final residual = 5.03448e-06, No Iterations 4
smoothSolver:  Solving for Uz, Initial residual = 0.00162332, Final residual = 9.47551e-06, No Iterations 4
DICPCG:  Solving for p, Initial residual = 0.000947795, Final residual = 4.49064e-05, No Iterations 8
time step continuity errors : sum local = 7.69436e-09, global = 4.6502e-09, cumulative = -8.85703e-08
smoothSolver:  Solving for nuTilda, Initial residual = 0, Final residual = 0, No Iterations 0
ExecutionTime = 9.18 s  ClockTime = 9 s

Time = 0.092

smoothSolver:  Solving for Ux, Initial residual = 0.00187002, Final residual = 4.92988e-06, No Iterations 4
smoothSolver:  Solving for Uy, Initial residual = 0.00187031, Final residual = 4.92759e-06, No Iterations 4
smoothSolver:  Solving for Uz, Initial residual = 0.00158554, Final residual = 9.33951e-06, No Iterations 4
DICPCG:  Solving for p, Initial residual = 0.000928567, Final residual = 4.14997e-05, No Iterations 24
time step continuity errors : sum local = 7.11271e-09, global = -6.92572e-10, cumulative = -8.92629e-08
smoothSolver:  Solving for nuTilda, Initial residual = 0, Final residual = 0, No Iterations 0
ExecutionTime = 9.35 s  ClockTime = 9 s

Time = 0.093

smoothSolver:  Solving for Ux, Initial residual = 0.0018229, Final residual = 4.84495e-06, No Iterations 4
smoothSolver:  Solving for Uy, Initial residual = 0.00182205, Final residual = 4.83799e-06, No Iterations 4
smoothSolver:  Solving for Uz, Initial residual = 0.0015691, Final residual = 9.20098e-06, No Iterations 4
DICPCG:  Solving for p, Initial residual = 0.000899287, Final residual = 4.25218e-05, No Iterations 29
time step continuity errors : sum local = 7.28143e-09, global = 1.32962e-09, cumulative = -8.79333e-08
smoothSolver:  Solving for nuTilda, Initial residual = 0, Final residual = 0, No Iterations 0
ExecutionTime = 9.48 s  ClockTime = 10 s

Time = 0.094

smoothSolver:  Solving for Ux, Initial residual = 0.00177445, Final residual = 4.7217e-06, No Iterations 4
smoothSolver:  Solving for Uy, Initial residual = 0.00177429, Final residual = 4.71721e-06, No Iterations 4
smoothSolver:  Solving for Uz, Initial residual = 0.0015476, Final residual = 9.06453e-06, No Iterations 4
DICPCG:  Solving for p, Initial residual = 0.000889513, Final residual = 3.71371e-05, No Iterations 7
time step continuity errors : sum local = 6.35641e-09, global = 2.57125e-09, cumulative = -8.5362e-08
smoothSolver:  Solving for nuTilda, Initial residual = 0, Final residual = 0, No Iterations 0
ExecutionTime = 9.54 s  ClockTime = 10 s

Time = 0.095

smoothSolver:  Solving for Ux, Initial residual = 0.00173298, Final residual = 4.60308e-06, No Iterations 4
smoothSolver:  Solving for Uy, Initial residual = 0.00173261, Final residual = 4.59869e-06, No Iterations 4
smoothSolver:  Solving for Uz, Initial residual = 0.00151141, Final residual = 8.93593e-06, No Iterations 4
DICPCG:  Solving for p, Initial residual = 0.000889674, Final residual = 4.39687e-05, No Iterations 7
time step continuity errors : sum local = 7.52822e-09, global = 3.84908e-09, cumulative = -8.15129e-08
smoothSolver:  Solving for nuTilda, Initial residual = 0, Final residual = 0, No Iterations 0
ExecutionTime = 9.6 s  ClockTime = 10 s

Time = 0.096

smoothSolver:  Solving for Ux, Initial residual = 0.00169139, Final residual = 4.49866e-06, No Iterations 4
smoothSolver:  Solving for Uy, Initial residual = 0.00169154, Final residual = 4.4957e-06, No Iterations 4
smoothSolver:  Solving for Uz, Initial residual = 0.00147742, Final residual = 8.81104e-06, No Iterations 4
DICPCG:  Solving for p, Initial residual = 0.000888047, Final residual = 3.91781e-05, No Iterations 31
time step continuity errors : sum local = 6.71009e-09, global = 4.02873e-10, cumulative = -8.111e-08
smoothSolver:  Solving for nuTilda, Initial residual = 0, Final residual = 0, No Iterations 0
ExecutionTime = 9.68 s  ClockTime = 10 s

Time = 0.097

smoothSolver:  Solving for Ux, Initial residual = 0.00165204, Final residual = 4.41304e-06, No Iterations 4
smoothSolver:  Solving for Uy, Initial residual = 0.00165288, Final residual = 4.40922e-06, No Iterations 4
smoothSolver:  Solving for Uz, Initial residual = 0.00145888, Final residual = 8.68573e-06, No Iterations 4
DICPCG:  Solving for p, Initial residual = 0.00085422, Final residual = 4.05977e-05, No Iterations 30
time step continuity errors : sum local = 6.94926e-09, global = -7.7581e-11, cumulative = -8.11876e-08
smoothSolver:  Solving for nuTilda, Initial residual = 0, Final residual = 0, No Iterations 0
ExecutionTime = 9.76 s  ClockTime = 10 s

Time = 0.098

smoothSolver:  Solving for Ux, Initial residual = 0.00161701, Final residual = 4.31192e-06, No Iterations 4
smoothSolver:  Solving for Uy, Initial residual = 0.00161717, Final residual = 4.3069e-06, No Iterations 4
smoothSolver:  Solving for Uz, Initial residual = 0.00143706, Final residual = 8.56374e-06, No Iterations 4
DICPCG:  Solving for p, Initial residual = 0.000819718, Final residual = 3.40942e-05, No Iterations 7
time step continuity errors : sum local = 5.83369e-09, global = 2.24596e-09, cumulative = -7.89417e-08
smoothSolver:  Solving for nuTilda, Initial residual = 0, Final residual = 0, No Iterations 0
ExecutionTime = 9.82 s  ClockTime = 10 s

Time = 0.099

smoothSolver:  Solving for Ux, Initial residual = 0.0015736, Final residual = 4.16969e-06, No Iterations 4
smoothSolver:  Solving for Uy, Initial residual = 0.00157339, Final residual = 4.16289e-06, No Iterations 4
smoothSolver:  Solving for Uz, Initial residual = 0.00140478, Final residual = 8.44753e-06, No Iterations 4
DICPCG:  Solving for p, Initial residual = 0.000800371, Final residual = 3.69667e-05, No Iterations 31
time step continuity errors : sum local = 6.32722e-09, global = 6.30531e-10, cumulative = -7.83111e-08
smoothSolver:  Solving for nuTilda, Initial residual = 0, Final residual = 0, No Iterations 0
ExecutionTime = 9.9 s  ClockTime = 10 s

Time = 0.1

smoothSolver:  Solving for Ux, Initial residual = 0.00152003, Final residual = 4.06781e-06, No Iterations 4
smoothSolver:  Solving for Uy, Initial residual = 0.00152035, Final residual = 4.06166e-06, No Iterations 4
smoothSolver:  Solving for Uz, Initial residual = 0.00138656, Final residual = 8.33032e-06, No Iterations 4
DICPCG:  Solving for p, Initial residual = 0.00078586, Final residual = 3.74523e-05, No Iterations 7
time step continuity errors : sum local = 6.40853e-09, global = 3.37609e-09, cumulative = -7.4935e-08
smoothSolver:  Solving for nuTilda, Initial residual = 0, Final residual = 0, No Iterations 0
ExecutionTime = 10.06 s  ClockTime = 10 s

Time = 0.101

smoothSolver:  Solving for Ux, Initial residual = 0.00148586, Final residual = 3.97308e-06, No Iterations 4
smoothSolver:  Solving for Uy, Initial residual = 0.00148573, Final residual = 3.9684e-06, No Iterations 4
smoothSolver:  Solving for Uz, Initial residual = 0.00135674, Final residual = 8.21983e-06, No Iterations 4
DICPCG:  Solving for p, Initial residual = 0.000778303, Final residual = 2.62973e-05, No Iterations 31
time step continuity errors : sum local = 4.50112e-09, global = 1.93534e-11, cumulative = -7.49157e-08
smoothSolver:  Solving for nuTilda, Initial residual = 0, Final residual = 0, No Iterations 0
ExecutionTime = 10.15 s  ClockTime = 10 s

Time = 0.102

smoothSolver:  Solving for Ux, Initial residual = 0.00145245, Final residual = 3.90027e-06, No Iterations 4
smoothSolver:  Solving for Uy, Initial residual = 0.0014526, Final residual = 3.89651e-06, No Iterations 4
smoothSolver:  Solving for Uz, Initial residual = 0.00134268, Final residual = 8.10863e-06, No Iterations 4
DICPCG:  Solving for p, Initial residual = 0.000753524, Final residual = 3.67015e-05, No Iterations 30
time step continuity errors : sum local = 6.27868e-09, global = 2.25917e-10, cumulative = -7.46898e-08
smoothSolver:  Solving for nuTilda, Initial residual = 0, Final residual = 0, No Iterations 0
ExecutionTime = 10.23 s  ClockTime = 10 s

Time = 0.103

smoothSolver:  Solving for Ux, Initial residual = 0.00141461, Final residual = 3.80778e-06, No Iterations 4
smoothSolver:  Solving for Uy, Initial residual = 0.00141343, Final residual = 3.80007e-06, No Iterations 4
smoothSolver:  Solving for Uz, Initial residual = 0.00132207, Final residual = 8.00106e-06, No Iterations 4
DICPCG:  Solving for p, Initial residual = 0.000725603, Final residual = 3.53805e-05, No Iterations 6
time step continuity errors : sum local = 6.05134e-09, global = 1.67034e-09, cumulative = -7.30194e-08
smoothSolver:  Solving for nuTilda, Initial residual = 0, Final residual = 0, No Iterations 0
ExecutionTime = 10.29 s  ClockTime = 10 s

Time = 0.104

smoothSolver:  Solving for Ux, Initial residual = 0.00136573, Final residual = 3.64974e-06, No Iterations 4
smoothSolver:  Solving for Uy, Initial residual = 0.00136594, Final residual = 3.64339e-06, No Iterations 4
smoothSolver:  Solving for Uz, Initial residual = 0.00129364, Final residual = 7.8993e-06, No Iterations 4
DICPCG:  Solving for p, Initial residual = 0.000702947, Final residual = 2.63762e-05, No Iterations 7
time step continuity errors : sum local = 4.51273e-09, global = 2.50404e-09, cumulative = -7.05154e-08
smoothSolver:  Solving for nuTilda, Initial residual = 0, Final residual = 0, No Iterations 0
ExecutionTime = 10.35 s  ClockTime = 10 s

Time = 0.105

smoothSolver:  Solving for Ux, Initial residual = 0.00131805, Final residual = 3.5518e-06, No Iterations 4
smoothSolver:  Solving for Uy, Initial residual = 0.00131861, Final residual = 3.54581e-06, No Iterations 4
smoothSolver:  Solving for Uz, Initial residual = 0.00126725, Final residual = 7.79987e-06, No Iterations 4
DICPCG:  Solving for p, Initial residual = 0.000688429, Final residual = 3.01342e-05, No Iterations 25
time step continuity errors : sum local = 5.15729e-09, global = 1.06024e-09, cumulative = -6.94552e-08
smoothSolver:  Solving for nuTilda, Initial residual = 0, Final residual = 0, No Iterations 0
ExecutionTime = 10.43 s  ClockTime = 10 s

Time = 0.106

smoothSolver:  Solving for Ux, Initial residual = 0.00127877, Final residual = 3.4988e-06, No Iterations 4
smoothSolver:  Solving for Uy, Initial residual = 0.00127941, Final residual = 3.49481e-06, No Iterations 4
smoothSolver:  Solving for Uz, Initial residual = 0.00125823, Final residual = 7.69847e-06, No Iterations 4
DICPCG:  Solving for p, Initial residual = 0.000675706, Final residual = 3.00832e-05, No Iterations 32
time step continuity errors : sum local = 5.14584e-09, global = 2.09424e-10, cumulative = -6.92457e-08
smoothSolver:  Solving for nuTilda, Initial residual = 0, Final residual = 0, No Iterations 0
ExecutionTime = 10.51 s  ClockTime = 11 s

Time = 0.107

smoothSolver:  Solving for Ux, Initial residual = 0.00124671, Final residual = 3.41511e-06, No Iterations 4
smoothSolver:  Solving for Uy, Initial residual = 0.00124713, Final residual = 3.41094e-06, No Iterations 4
smoothSolver:  Solving for Uz, Initial residual = 0.00124265, Final residual = 7.60099e-06, No Iterations 4
DICPCG:  Solving for p, Initial residual = 0.000655368, Final residual = 3.23615e-05, No Iterations 7
time step continuity errors : sum local = 5.53377e-09, global = 1.98075e-09, cumulative = -6.7265e-08
smoothSolver:  Solving for nuTilda, Initial residual = 0, Final residual = 0, No Iterations 0
ExecutionTime = 10.56 s  ClockTime = 11 s

Time = 0.108

smoothSolver:  Solving for Ux, Initial residual = 0.00121765, Final residual = 3.29998e-06, No Iterations 4
smoothSolver:  Solving for Uy, Initial residual = 0.00121684, Final residual = 3.29285e-06, No Iterations 4
smoothSolver:  Solving for Uz, Initial residual = 0.00121717, Final residual = 7.50896e-06, No Iterations 4
DICPCG:  Solving for p, Initial residual = 0.000639221, Final residual = 2.76466e-05, No Iterations 7
time step continuity errors : sum local = 4.72887e-09, global = 2.34058e-09, cumulative = -6.49244e-08
smoothSolver:  Solving for nuTilda, Initial residual = 0, Final residual = 0, No Iterations 0
ExecutionTime = 10.63 s  ClockTime = 11 s

Time = 0.109

smoothSolver:  Solving for Ux, Initial residual = 0.00117896, Final residual = 3.20545e-06, No Iterations 4
smoothSolver:  Solving for Uy, Initial residual = 0.00117823, Final residual = 3.19777e-06, No Iterations 4
smoothSolver:  Solving for Uz, Initial residual = 0.00119317, Final residual = 7.41913e-06, No Iterations 4
DICPCG:  Solving for p, Initial residual = 0.000622999, Final residual = 2.8115e-05, No Iterations 24
time step continuity errors : sum local = 4.81033e-09, global = -3.44627e-10, cumulative = -6.5269e-08
smoothSolver:  Solving for nuTilda, Initial residual = 0, Final residual = 0, No Iterations 0
ExecutionTime = 10.71 s  ClockTime = 11 s

Time = 0.11

smoothSolver:  Solving for Ux, Initial residual = 0.00113939, Final residual = 3.14786e-06, No Iterations 4
smoothSolver:  Solving for Uy, Initial residual = 0.0011386, Final residual = 3.14034e-06, No Iterations 4
smoothSolver:  Solving for Uz, Initial residual = 0.00118076, Final residual = 7.32882e-06, No Iterations 4
DICPCG:  Solving for p, Initial residual = 0.000595939, Final residual = 2.94115e-05, No Iterations 31
time step continuity errors : sum local = 5.03036e-09, global = 4.38028e-10, cumulative = -6.4831e-08
smoothSolver:  Solving for nuTilda, Initial residual = 0, Final residual = 0, No Iterations 0
ExecutionTime = 10.81 s  ClockTime = 11 s

Time = 0.111

smoothSolver:  Solving for Ux, Initial residual = 0.00109535, Final residual = 3.06741e-06, No Iterations 4
smoothSolver:  Solving for Uy, Initial residual = 0.00109605, Final residual = 3.06229e-06, No Iterations 4
smoothSolver:  Solving for Uz, Initial residual = 0.00116796, Final residual = 7.23978e-06, No Iterations 4
DICPCG:  Solving for p, Initial residual = 0.000574899, Final residual = 2.51764e-05, No Iterations 7
time step continuity errors : sum local = 4.3049e-09, global = 1.54406e-09, cumulative = -6.32869e-08
smoothSolver:  Solving for nuTilda, Initial residual = 0, Final residual = 0, No Iterations 0
ExecutionTime = 10.87 s  ClockTime = 11 s

Time = 0.112

smoothSolver:  Solving for Ux, Initial residual = 0.0010644, Final residual = 2.96249e-06, No Iterations 4
smoothSolver:  Solving for Uy, Initial residual = 0.00106518, Final residual = 2.95883e-06, No Iterations 4
smoothSolver:  Solving for Uz, Initial residual = 0.0011456, Final residual = 7.15596e-06, No Iterations 4
DICPCG:  Solving for p, Initial residual = 0.000562536, Final residual = 2.64898e-05, No Iterations 30
time step continuity errors : sum local = 4.53061e-09, global = 5.47396e-10, cumulative = -6.27395e-08
smoothSolver:  Solving for nuTilda, Initial residual = 0, Final residual = 0, No Iterations 0
ExecutionTime = 10.96 s  ClockTime = 11 s

Time = 0.113

smoothSolver:  Solving for Ux, Initial residual = 0.00103546, Final residual = 2.90472e-06, No Iterations 4
smoothSolver:  Solving for Uy, Initial residual = 0.00103497, Final residual = 2.89726e-06, No Iterations 4
smoothSolver:  Solving for Uz, Initial residual = 0.00113285, Final residual = 7.07176e-06, No Iterations 4
DICPCG:  Solving for p, Initial residual = 0.000547867, Final residual = 2.66168e-05, No Iterations 8
time step continuity errors : sum local = 4.55159e-09, global = 2.54265e-09, cumulative = -6.01969e-08
smoothSolver:  Solving for nuTilda, Initial residual = 0, Final residual = 0, No Iterations 0
ExecutionTime = 11.02 s  ClockTime = 11 s

Time = 0.114

smoothSolver:  Solving for Ux, Initial residual = 0.00100143, Final residual = 2.81987e-06, No Iterations 4
smoothSolver:  Solving for Uy, Initial residual = 0.00100127, Final residual = 2.81372e-06, No Iterations 4
smoothSolver:  Solving for Uz, Initial residual = 0.0011118, Final residual = 6.99195e-06, No Iterations 4
DICPCG:  Solving for p, Initial residual = 0.000530346, Final residual = 2.4166e-05, No Iterations 31
time step continuity errors : sum local = 4.13336e-09, global = 1.98247e-11, cumulative = -6.01771e-08
smoothSolver:  Solving for nuTilda, Initial residual = 0, Final residual = 0, No Iterations 0
ExecutionTime = 11.1 s  ClockTime = 11 s

Time = 0.115

smoothSolver:  Solving for Ux, Initial residual = 0.000974353, Final residual = 2.76293e-06, No Iterations 4
smoothSolver:  Solving for Uy, Initial residual = 0.00097494, Final residual = 2.75862e-06, No Iterations 4
smoothSolver:  Solving for Uz, Initial residual = 0.00110252, Final residual = 6.91145e-06, No Iterations 4
DICPCG:  Solving for p, Initial residual = 0.000509895, Final residual = 2.45938e-05, No Iterations 23
time step continuity errors : sum local = 4.20489e-09, global = -4.34335e-10, cumulative = -6.06114e-08
smoothSolver:  Solving for nuTilda, Initial residual = 0, Final residual = 0, No Iterations 0
ExecutionTime = 11.17 s  ClockTime = 11 s

Time = 0.116

smoothSolver:  Solving for Ux, Initial residual = 0.000943277, Final residual = 2.68215e-06, No Iterations 4
smoothSolver:  Solving for Uy, Initial residual = 0.000943576, Final residual = 2.67729e-06, No Iterations 4
smoothSolver:  Solving for Uz, Initial residual = 0.00108894, Final residual = 6.83339e-06, No Iterations 4
DICPCG:  Solving for p, Initial residual = 0.000490077, Final residual = 2.12666e-05, No Iterations 7
time step continuity errors : sum local = 3.63534e-09, global = 7.61912e-10, cumulative = -5.98495e-08
[...]
smoothSolver:  Solving for nuTilda, Initial residual = 0, Final residual = 0, No Iterations 0
ExecutionTime = 37.31 s  ClockTime = 38 s

Time = 0.469

smoothSolver:  Solving for Ux, Initial residual = 1.12957e-05, Final residual = 2.40127e-06, No Iterations 1
smoothSolver:  Solving for Uy, Initial residual = 1.13244e-05, Final residual = 2.41632e-06, No Iterations 1
smoothSolver:  Solving for Uz, Initial residual = 1.35673e-05, Final residual = 3.78652e-06, No Iterations 1
DICPCG:  Solving for p, Initial residual = 7.97531e-06, Final residual = 9.42871e-07, No Iterations 2
time step continuity errors : sum local = 1.59108e-10, global = 3.20755e-11, cumulative = 5.19216e-09
smoothSolver:  Solving for nuTilda, Initial residual = 0, Final residual = 0, No Iterations 0
ExecutionTime = 37.36 s  ClockTime = 38 s

Time = 0.47

smoothSolver:  Solving for Ux, Initial residual = 1.06258e-05, Final residual = 2.21406e-06, No Iterations 1
smoothSolver:  Solving for Uy, Initial residual = 1.06509e-05, Final residual = 2.22789e-06, No Iterations 1
smoothSolver:  Solving for Uz, Initial residual = 1.33699e-05, Final residual = 3.73806e-06, No Iterations 1
DICPCG:  Solving for p, Initial residual = 7.66309e-06, Final residual = 9.25947e-07, No Iterations 6
time step continuity errors : sum local = 1.56252e-10, global = 5.60094e-11, cumulative = 5.24817e-09
smoothSolver:  Solving for nuTilda, Initial residual = 0, Final residual = 0, No Iterations 0
ExecutionTime = 37.42 s  ClockTime = 38 s

Time = 0.471

smoothSolver:  Solving for Ux, Initial residual = 1.09028e-05, Final residual = 2.29626e-06, No Iterations 1
smoothSolver:  Solving for Uy, Initial residual = 1.09457e-05, Final residual = 2.31355e-06, No Iterations 1
smoothSolver:  Solving for Uz, Initial residual = 1.3192e-05, Final residual = 3.69285e-06, No Iterations 1
DICPCG:  Solving for p, Initial residual = 7.6603e-06, Final residual = 9.53409e-07, No Iterations 2
time step continuity errors : sum local = 1.60886e-10, global = 1.02449e-10, cumulative = 5.35062e-09
smoothSolver:  Solving for nuTilda, Initial residual = 0, Final residual = 0, No Iterations 0
ExecutionTime = 37.47 s  ClockTime = 38 s

Time = 0.472

smoothSolver:  Solving for Ux, Initial residual = 1.02745e-05, Final residual = 2.1226e-06, No Iterations 1
smoothSolver:  Solving for Uy, Initial residual = 1.02926e-05, Final residual = 2.13208e-06, No Iterations 1
smoothSolver:  Solving for Uz, Initial residual = 1.30105e-05, Final residual = 3.64741e-06, No Iterations 1
DICPCG:  Solving for p, Initial residual = 7.41055e-06, Final residual = 6.56079e-07, No Iterations 29
time step continuity errors : sum local = 1.10712e-10, global = -5.31896e-13, cumulative = 5.35009e-09
smoothSolver:  Solving for nuTilda, Initial residual = 0, Final residual = 0, No Iterations 0
ExecutionTime = 37.54 s  ClockTime = 38 s

Time = 0.473

smoothSolver:  Solving for Ux, Initial residual = 1.04529e-05, Final residual = 2.19419e-06, No Iterations 1
smoothSolver:  Solving for Uy, Initial residual = 1.04421e-05, Final residual = 2.19704e-06, No Iterations 1
smoothSolver:  Solving for Uz, Initial residual = 1.3081e-05, Final residual = 3.63484e-06, No Iterations 1
DICPCG:  Solving for p, Initial residual = 7.31936e-06, Final residual = 9.55295e-07, No Iterations 2
time step continuity errors : sum local = 1.61202e-10, global = 5.84e-11, cumulative = 5.40849e-09
smoothSolver:  Solving for nuTilda, Initial residual = 0, Final residual = 0, No Iterations 0
ExecutionTime = 37.59 s  ClockTime = 38 s

Time = 0.474

smoothSolver:  Solving for Ux, Initial residual = 9.88088e-06, Final residual = 9.88088e-06, No Iterations 0
smoothSolver:  Solving for Uy, Initial residual = 9.87958e-06, Final residual = 9.87958e-06, No Iterations 0
smoothSolver:  Solving for Uz, Initial residual = 1.2866e-05, Final residual = 3.58462e-06, No Iterations 1
DICPCG:  Solving for p, Initial residual = 6.21888e-06, Final residual = 6.37296e-07, No Iterations 7
time step continuity errors : sum local = 1.07541e-10, global = 2.89056e-11, cumulative = 5.43739e-09
smoothSolver:  Solving for nuTilda, Initial residual = 0, Final residual = 0, No Iterations 0
ExecutionTime = 37.65 s  ClockTime = 38 s

Time = 0.475

smoothSolver:  Solving for Ux, Initial residual = 1.50859e-05, Final residual = 3.40608e-06, No Iterations 1
smoothSolver:  Solving for Uy, Initial residual = 1.50972e-05, Final residual = 3.42337e-06, No Iterations 1
smoothSolver:  Solving for Uz, Initial residual = 1.26649e-05, Final residual = 3.53742e-06, No Iterations 1
DICPCG:  Solving for p, Initial residual = 6.89614e-06, Final residual = 8.58975e-07, No Iterations 4
time step continuity errors : sum local = 1.44947e-10, global = 2.21439e-11, cumulative = 5.45953e-09
smoothSolver:  Solving for nuTilda, Initial residual = 0, Final residual = 0, No Iterations 0
ExecutionTime = 37.69 s  ClockTime = 38 s

Time = 0.476

smoothSolver:  Solving for Ux, Initial residual = 1.39476e-05, Final residual = 3.11736e-06, No Iterations 1
smoothSolver:  Solving for Uy, Initial residual = 1.39453e-05, Final residual = 3.12801e-06, No Iterations 1
smoothSolver:  Solving for Uz, Initial residual = 1.24961e-05, Final residual = 3.49457e-06, No Iterations 1
DICPCG:  Solving for p, Initial residual = 7.79327e-06, Final residual = 7.77426e-07, No Iterations 5
time step continuity errors : sum local = 1.31186e-10, global = 2.76995e-11, cumulative = 5.48723e-09
smoothSolver:  Solving for nuTilda, Initial residual = 0, Final residual = 0, No Iterations 0
ExecutionTime = 37.75 s  ClockTime = 38 s

Time = 0.477

smoothSolver:  Solving for Ux, Initial residual = 1.135e-05, Final residual = 2.40993e-06, No Iterations 1
smoothSolver:  Solving for Uy, Initial residual = 1.1367e-05, Final residual = 2.42093e-06, No Iterations 1
smoothSolver:  Solving for Uz, Initial residual = 1.23208e-05, Final residual = 3.45027e-06, No Iterations 1
DICPCG:  Solving for p, Initial residual = 8.38243e-06, Final residual = 9.95902e-07, No Iterations 6
time step continuity errors : sum local = 1.68053e-10, global = 5.29287e-11, cumulative = 5.54016e-09
smoothSolver:  Solving for nuTilda, Initial residual = 0, Final residual = 0, No Iterations 0
ExecutionTime = 37.81 s  ClockTime = 38 s

Time = 0.478

smoothSolver:  Solving for Ux, Initial residual = 9.03315e-06, Final residual = 9.03315e-06, No Iterations 0
smoothSolver:  Solving for Uy, Initial residual = 9.06696e-06, Final residual = 9.06696e-06, No Iterations 0
smoothSolver:  Solving for Uz, Initial residual = 1.2146e-05, Final residual = 3.40646e-06, No Iterations 1
DICPCG:  Solving for p, Initial residual = 6.68647e-06, Final residual = 5.96154e-07, No Iterations 21
time step continuity errors : sum local = 1.00598e-10, global = 6.20162e-14, cumulative = 5.54023e-09
smoothSolver:  Solving for nuTilda, Initial residual = 0, Final residual = 0, No Iterations 0
ExecutionTime = 37.88 s  ClockTime = 38 s

Time = 0.479

smoothSolver:  Solving for Ux, Initial residual = 1.08392e-05, Final residual = 2.20283e-06, No Iterations 1
smoothSolver:  Solving for Uy, Initial residual = 1.08658e-05, Final residual = 2.21325e-06, No Iterations 1
smoothSolver:  Solving for Uz, Initial residual = 1.22471e-05, Final residual = 3.40176e-06, No Iterations 1
DICPCG:  Solving for p, Initial residual = 7.44664e-06, Final residual = 8.29514e-07, No Iterations 4
time step continuity errors : sum local = 1.39974e-10, global = 4.45126e-11, cumulative = 5.58474e-09
smoothSolver:  Solving for nuTilda, Initial residual = 0, Final residual = 0, No Iterations 0
ExecutionTime = 37.93 s  ClockTime = 38 s

Time = 0.48

smoothSolver:  Solving for Ux, Initial residual = 1.15253e-05, Final residual = 2.42102e-06, No Iterations 1
smoothSolver:  Solving for Uy, Initial residual = 1.15248e-05, Final residual = 2.42859e-06, No Iterations 1
smoothSolver:  Solving for Uz, Initial residual = 1.20629e-05, Final residual = 3.35747e-06, No Iterations 1
DICPCG:  Solving for p, Initial residual = 7.49534e-06, Final residual = 8.4864e-07, No Iterations 2
time step continuity errors : sum local = 1.43201e-10, global = 4.05244e-11, cumulative = 5.62526e-09
smoothSolver:  Solving for nuTilda, Initial residual = 0, Final residual = 0, No Iterations 0
ExecutionTime = 37.98 s  ClockTime = 38 s

Time = 0.481

smoothSolver:  Solving for Ux, Initial residual = 1.08847e-05, Final residual = 2.24345e-06, No Iterations 1
smoothSolver:  Solving for Uy, Initial residual = 1.09006e-05, Final residual = 2.25401e-06, No Iterations 1
smoothSolver:  Solving for Uz, Initial residual = 1.18772e-05, Final residual = 3.31248e-06, No Iterations 1
DICPCG:  Solving for p, Initial residual = 7.60831e-06, Final residual = 7.59861e-07, No Iterations 4
time step continuity errors : sum local = 1.2822e-10, global = 3.39286e-11, cumulative = 5.65919e-09
smoothSolver:  Solving for nuTilda, Initial residual = 0, Final residual = 0, No Iterations 0
ExecutionTime = 38.03 s  ClockTime = 38 s

Time = 0.482

smoothSolver:  Solving for Ux, Initial residual = 1.02504e-05, Final residual = 2.09441e-06, No Iterations 1
smoothSolver:  Solving for Uy, Initial residual = 1.02648e-05, Final residual = 2.10569e-06, No Iterations 1
smoothSolver:  Solving for Uz, Initial residual = 1.17021e-05, Final residual = 3.26884e-06, No Iterations 1
DICPCG:  Solving for p, Initial residual = 7.67259e-06, Final residual = 9.79687e-07, No Iterations 4
time step continuity errors : sum local = 1.65314e-10, global = 4.54032e-11, cumulative = 5.70459e-09
smoothSolver:  Solving for nuTilda, Initial residual = 0, Final residual = 0, No Iterations 0
ExecutionTime = 38.09 s  ClockTime = 38 s

Time = 0.483

smoothSolver:  Solving for Ux, Initial residual = 9.78444e-06, Final residual = 9.78444e-06, No Iterations 0
smoothSolver:  Solving for Uy, Initial residual = 9.79142e-06, Final residual = 9.79142e-06, No Iterations 0
smoothSolver:  Solving for Uz, Initial residual = 1.15355e-05, Final residual = 3.22715e-06, No Iterations 1
DICPCG:  Solving for p, Initial residual = 6.36055e-06, Final residual = 8.17024e-07, No Iterations 7
time step continuity errors : sum local = 1.37866e-10, global = 5.87108e-11, cumulative = 5.7633e-09
smoothSolver:  Solving for nuTilda, Initial residual = 0, Final residual = 0, No Iterations 0
ExecutionTime = 38.14 s  ClockTime = 38 s

Time = 0.484

smoothSolver:  Solving for Ux, Initial residual = 1.39473e-05, Final residual = 3.1265e-06, No Iterations 1
smoothSolver:  Solving for Uy, Initial residual = 1.39686e-05, Final residual = 3.1445e-06, No Iterations 1
smoothSolver:  Solving for Uz, Initial residual = 1.13627e-05, Final residual = 3.18578e-06, No Iterations 1
DICPCG:  Solving for p, Initial residual = 7.45975e-06, Final residual = 7.95057e-07, No Iterations 10
time step continuity errors : sum local = 1.34158e-10, global = 4.14435e-11, cumulative = 5.80475e-09
smoothSolver:  Solving for nuTilda, Initial residual = 0, Final residual = 0, No Iterations 0
ExecutionTime = 38.19 s  ClockTime = 38 s

Time = 0.485

smoothSolver:  Solving for Ux, Initial residual = 1.25063e-05, Final residual = 2.7406e-06, No Iterations 1
smoothSolver:  Solving for Uy, Initial residual = 1.25281e-05, Final residual = 2.75227e-06, No Iterations 1
smoothSolver:  Solving for Uz, Initial residual = 1.12431e-05, Final residual = 3.15241e-06, No Iterations 1
DICPCG:  Solving for p, Initial residual = 8.09901e-06, Final residual = 8.88094e-07, No Iterations 20
time step continuity errors : sum local = 1.49857e-10, global = -7.1932e-12, cumulative = 5.79755e-09
smoothSolver:  Solving for nuTilda, Initial residual = 0, Final residual = 0, No Iterations 0
ExecutionTime = 38.26 s  ClockTime = 39 s

Time = 0.486

smoothSolver:  Solving for Ux, Initial residual = 9.93435e-06, Final residual = 9.93435e-06, No Iterations 0
smoothSolver:  Solving for Uy, Initial residual = 9.93208e-06, Final residual = 9.93208e-06, No Iterations 0
smoothSolver:  Solving for Uz, Initial residual = 1.12989e-05, Final residual = 3.14126e-06, No Iterations 1
DICPCG:  Solving for p, Initial residual = 6.2664e-06, Final residual = 8.32599e-07, No Iterations 6
time step continuity errors : sum local = 1.40491e-10, global = 1.94022e-11, cumulative = 5.81696e-09
smoothSolver:  Solving for nuTilda, Initial residual = 0, Final residual = 0, No Iterations 0
ExecutionTime = 38.31 s  ClockTime = 39 s

Time = 0.487

smoothSolver:  Solving for Ux, Initial residual = 1.17773e-05, Final residual = 2.4637e-06, No Iterations 1
smoothSolver:  Solving for Uy, Initial residual = 1.18087e-05, Final residual = 2.4769e-06, No Iterations 1
smoothSolver:  Solving for Uz, Initial residual = 1.11126e-05, Final residual = 3.09847e-06, No Iterations 1
DICPCG:  Solving for p, Initial residual = 6.81998e-06, Final residual = 8.1978e-07, No Iterations 9
time step continuity errors : sum local = 1.38328e-10, global = 2.63467e-11, cumulative = 5.8433e-09
smoothSolver:  Solving for nuTilda, Initial residual = 0, Final residual = 0, No Iterations 0
ExecutionTime = 38.36 s  ClockTime = 39 s

Time = 0.488

smoothSolver:  Solving for Ux, Initial residual = 1.12973e-05, Final residual = 2.37657e-06, No Iterations 1
smoothSolver:  Solving for Uy, Initial residual = 1.13224e-05, Final residual = 2.38917e-06, No Iterations 1
smoothSolver:  Solving for Uz, Initial residual = 1.09733e-05, Final residual = 3.06205e-06, No Iterations 1
DICPCG:  Solving for p, Initial residual = 7.42151e-06, Final residual = 9.84689e-07, No Iterations 3
time step continuity errors : sum local = 1.66154e-10, global = 1.49042e-11, cumulative = 5.85821e-09
smoothSolver:  Solving for nuTilda, Initial residual = 0, Final residual = 0, No Iterations 0
ExecutionTime = 38.41 s  ClockTime = 39 s

Time = 0.489

smoothSolver:  Solving for Ux, Initial residual = 9.80003e-06, Final residual = 9.80003e-06, No Iterations 0
smoothSolver:  Solving for Uy, Initial residual = 9.80983e-06, Final residual = 9.80983e-06, No Iterations 0
smoothSolver:  Solving for Uz, Initial residual = 1.08133e-05, Final residual = 3.02184e-06, No Iterations 1
DICPCG:  Solving for p, Initial residual = 5.86516e-06, Final residual = 9.39406e-07, No Iterations 4
time step continuity errors : sum local = 1.58514e-10, global = 3.58649e-11, cumulative = 5.89407e-09
smoothSolver:  Solving for nuTilda, Initial residual = 0, Final residual = 0, No Iterations 0
ExecutionTime = 38.46 s  ClockTime = 39 s

Time = 0.49

smoothSolver:  Solving for Ux, Initial residual = 1.16671e-05, Final residual = 2.47599e-06, No Iterations 1
smoothSolver:  Solving for Uy, Initial residual = 1.16556e-05, Final residual = 2.48549e-06, No Iterations 1
smoothSolver:  Solving for Uz, Initial residual = 1.06679e-05, Final residual = 2.98526e-06, No Iterations 1
DICPCG:  Solving for p, Initial residual = 6.58803e-06, Final residual = 6.81108e-07, No Iterations 4
time step continuity errors : sum local = 1.14929e-10, global = 6.74732e-11, cumulative = 5.96155e-09
smoothSolver:  Solving for nuTilda, Initial residual = 0, Final residual = 0, No Iterations 0
ExecutionTime = 38.51 s  ClockTime = 39 s

Time = 0.491

smoothSolver:  Solving for Ux, Initial residual = 1.0682e-05, Final residual = 2.22368e-06, No Iterations 1
smoothSolver:  Solving for Uy, Initial residual = 1.06626e-05, Final residual = 2.22788e-06, No Iterations 1
smoothSolver:  Solving for Uz, Initial residual = 1.05142e-05, Final residual = 2.94691e-06, No Iterations 1
DICPCG:  Solving for p, Initial residual = 7.11011e-06, Final residual = 9.8534e-07, No Iterations 26
time step continuity errors : sum local = 1.66264e-10, global = 7.35548e-12, cumulative = 5.9689e-09
smoothSolver:  Solving for nuTilda, Initial residual = 0, Final residual = 0, No Iterations 0
ExecutionTime = 38.59 s  ClockTime = 39 s

Time = 0.492

smoothSolver:  Solving for Ux, Initial residual = 9.43821e-06, Final residual = 9.43821e-06, No Iterations 0
smoothSolver:  Solving for Uy, Initial residual = 9.45095e-06, Final residual = 9.45095e-06, No Iterations 0
smoothSolver:  Solving for Uz, Initial residual = 1.05332e-05, Final residual = 2.93175e-06, No Iterations 1
DICPCG:  Solving for p, Initial residual = 5.84971e-06, Final residual = 7.9566e-07, No Iterations 6
time step continuity errors : sum local = 1.34256e-10, global = 4.89504e-11, cumulative = 6.01785e-09
smoothSolver:  Solving for nuTilda, Initial residual = 0, Final residual = 0, No Iterations 0
ExecutionTime = 38.64 s  ClockTime = 39 s

Time = 0.493

smoothSolver:  Solving for Ux, Initial residual = 1.19252e-05, Final residual = 2.56205e-06, No Iterations 1
smoothSolver:  Solving for Uy, Initial residual = 1.19641e-05, Final residual = 2.58053e-06, No Iterations 1
smoothSolver:  Solving for Uz, Initial residual = 1.03609e-05, Final residual = 2.8917e-06, No Iterations 1
DICPCG:  Solving for p, Initial residual = 6.63892e-06, Final residual = 8.23982e-07, No Iterations 2
time step continuity errors : sum local = 1.39035e-10, global = 3.96297e-11, cumulative = 6.05748e-09
smoothSolver:  Solving for nuTilda, Initial residual = 0, Final residual = 0, No Iterations 0
ExecutionTime = 38.69 s  ClockTime = 39 s

Time = 0.494

smoothSolver:  Solving for Ux, Initial residual = 1.10069e-05, Final residual = 2.33805e-06, No Iterations 1
smoothSolver:  Solving for Uy, Initial residual = 1.10225e-05, Final residual = 2.34865e-06, No Iterations 1
smoothSolver:  Solving for Uz, Initial residual = 1.02096e-05, Final residual = 2.85469e-06, No Iterations 1
DICPCG:  Solving for p, Initial residual = 7.04352e-06, Final residual = 8.80128e-07, No Iterations 5
time step continuity errors : sum local = 1.48509e-10, global = 3.8589e-11, cumulative = 6.09607e-09
smoothSolver:  Solving for nuTilda, Initial residual = 0, Final residual = 0, No Iterations 0
ExecutionTime = 38.74 s  ClockTime = 39 s

Time = 0.495

smoothSolver:  Solving for Ux, Initial residual = 9.01018e-06, Final residual = 9.01018e-06, No Iterations 0
smoothSolver:  Solving for Uy, Initial residual = 8.99342e-06, Final residual = 8.99342e-06, No Iterations 0
smoothSolver:  Solving for Uz, Initial residual = 1.00723e-05, Final residual = 2.81957e-06, No Iterations 1
DICPCG:  Solving for p, Initial residual = 5.29244e-06, Final residual = 7.77159e-07, No Iterations 6
time step continuity errors : sum local = 1.31134e-10, global = 5.8274e-11, cumulative = 6.15434e-09
smoothSolver:  Solving for nuTilda, Initial residual = 0, Final residual = 0, No Iterations 0
ExecutionTime = 38.84 s  ClockTime = 39 s

Time = 0.496

smoothSolver:  Solving for Ux, Initial residual = 1.07209e-05, Final residual = 2.2835e-06, No Iterations 1
smoothSolver:  Solving for Uy, Initial residual = 1.07054e-05, Final residual = 2.28571e-06, No Iterations 1
smoothSolver:  Solving for Uz, Initial residual = 9.93436e-06, Final residual = 9.93436e-06, No Iterations 0
DICPCG:  Solving for p, Initial residual = 6.1931e-06, Final residual = 8.69089e-07, No Iterations 7
time step continuity errors : sum local = 1.46646e-10, global = 5.88892e-11, cumulative = 6.21323e-09
smoothSolver:  Solving for nuTilda, Initial residual = 0, Final residual = 0, No Iterations 0
ExecutionTime = 38.9 s  ClockTime = 39 s

Time = 0.497

smoothSolver:  Solving for Ux, Initial residual = 7.1101e-06, Final residual = 7.1101e-06, No Iterations 0
smoothSolver:  Solving for Uy, Initial residual = 7.08374e-06, Final residual = 7.08374e-06, No Iterations 0
smoothSolver:  Solving for Uz, Initial residual = 9.88363e-06, Final residual = 9.88363e-06, No Iterations 0
DICPCG:  Solving for p, Initial residual = 4.85696e-06, Final residual = 9.3584e-07, No Iterations 5
time step continuity errors : sum local = 1.5791e-10, global = 6.65551e-11, cumulative = 6.27979e-09
smoothSolver:  Solving for nuTilda, Initial residual = 0, Final residual = 0, No Iterations 0
ExecutionTime = 38.95 s  ClockTime = 39 s


SIMPLE solution converged in 0.497 iterations

End

