/*---------------------------------------------------------------------------*\
| =========                 |                                                 |
| \\      /  F ield         | OpenFOAM: The Open Source CFD Toolbox           |
|  \\    /   O peration     | Version:  2412                                  |
|   \\  /    A nd           | Website:  www.openfoam.com                      |
|    \\/     M anipulation  |                                                 |
\*---------------------------------------------------------------------------*/
Build  : _45e7c4a0-20241224 OPENFOAM=2412 version=2412
Arch   : "LSB;label=32;scalar=64"
Exec   : nonNewtonianIcoFoam
Date   : Feb 26 2025
Time   : 22:09:09
Host   : LAPTOP-CKF7412P
PID    : 1111
I/O    : uncollated
Case   : /home/tafslucas/OpenFOAM/tafslucas-v2412/run/HM/HM1/laminar_non_newtonian
nProcs : 1
trapFpe: Floating point exception trapping enabled (FOAM_SIGFPE).
fileModificationChecking : Monitoring run-time modified files using timeStampMaster (fileModificationSkew 5, maxFileModificationPolls 20)
allowSystemOperations : Allowing user-supplied system call operations

// * * * * * * * * * * * * * * * * * * * * * * * * * * * * * * * * * * * * * //
Create time

Create mesh, no clear-out for time = 0


PISO: Operating solver in PISO mode

Reading field p

Reading field U

Reading/calculating face flux field phi

Selecting incompressible transport model powerLaw

Starting time loop

Time = 0.005

Courant Number mean: 0.0025 max: 0.0025
smoothSolver:  Solving for Ux, Initial residual = 0.00191025, Final residual = 2.25389e-08, No Iterations 1
smoothSolver:  Solving for Uy, Initial residual = 0.0034512, Final residual = 3.65141e-08, No Iterations 1
smoothSolver:  Solving for Uz, Initial residual = 1, Final residual = 2.07343e-10, No Iterations 2
DICPCG:  Solving for p, Initial residual = 1, Final residual = 0.0453828, No Iterations 73
time step continuity errors : sum local = 1.87042e-09, global = -2.85418e-11, cumulative = -2.85418e-11
DICPCG:  Solving for p, Initial residual = 0.00189524, Final residual = 8.5973e-07, No Iterations 81
time step continuity errors : sum local = 3.61769e-12, global = 7.34166e-14, cumulative = -2.84684e-11
ExecutionTime = 0.31 s  ClockTime = 0 s

Time = 0.01

Courant Number mean: 0.00250017 max: 0.00251663
smoothSolver:  Solving for Ux, Initial residual = 0.333098, Final residual = 5.21474e-06, No Iterations 1
smoothSolver:  Solving for Uy, Initial residual = 0.333099, Final residual = 5.22778e-06, No Iterations 1
smoothSolver:  Solving for Uz, Initial residual = 0.337382, Final residual = 3.7255e-06, No Iterations 1
DICPCG:  Solving for p, Initial residual = 0.00172357, Final residual = 5.53169e-05, No Iterations 69
time step continuity errors : sum local = 2.31843e-10, global = 9.80064e-12, cumulative = -1.86677e-11
DICPCG:  Solving for p, Initial residual = 0.000110085, Final residual = 9.20232e-07, No Iterations 67
time step continuity errors : sum local = 3.84279e-12, global = 2.24986e-15, cumulative = -1.86655e-11
ExecutionTime = 0.43 s  ClockTime = 1 s

Time = 0.015

Courant Number mean: 0.00250034 max: 0.00253299
smoothSolver:  Solving for Ux, Initial residual = 0.201328, Final residual = 3.15134e-06, No Iterations 1
smoothSolver:  Solving for Uy, Initial residual = 0.201327, Final residual = 3.15798e-06, No Iterations 1
smoothSolver:  Solving for Uz, Initial residual = 0.20225, Final residual = 2.23698e-06, No Iterations 1
DICPCG:  Solving for p, Initial residual = 0.000965546, Final residual = 3.39252e-05, No Iterations 69
time step continuity errors : sum local = 1.41796e-10, global = 5.2769e-12, cumulative = -1.33886e-11
DICPCG:  Solving for p, Initial residual = 4.39128e-05, Final residual = 9.93582e-07, No Iterations 67
time step continuity errors : sum local = 4.13608e-12, global = -2.20826e-13, cumulative = -1.36094e-11
ExecutionTime = 0.55 s  ClockTime = 1 s

Time = 0.02

Courant Number mean: 0.0025005 max: 0.00254914
smoothSolver:  Solving for Ux, Initial residual = 0.143906, Final residual = 2.25502e-06, No Iterations 1
smoothSolver:  Solving for Uy, Initial residual = 0.143906, Final residual = 2.25967e-06, No Iterations 1
smoothSolver:  Solving for Uz, Initial residual = 0.14407, Final residual = 1.59604e-06, No Iterations 1
DICPCG:  Solving for p, Initial residual = 0.000713974, Final residual = 2.7709e-05, No Iterations 69
time step continuity errors : sum local = 1.15426e-10, global = 4.04539e-12, cumulative = -9.56403e-12
DICPCG:  Solving for p, Initial residual = 3.58311e-05, Final residual = 9.66491e-07, No Iterations 69
time step continuity errors : sum local = 4.00901e-12, global = -1.8178e-13, cumulative = -9.74581e-12
ExecutionTime = 0.68 s  ClockTime = 1 s

Time = 0.025

Courant Number mean: 0.00250067 max: 0.00256507
smoothSolver:  Solving for Ux, Initial residual = 0.111891, Final residual = 1.75431e-06, No Iterations 1
smoothSolver:  Solving for Uy, Initial residual = 0.111891, Final residual = 1.75783e-06, No Iterations 1
smoothSolver:  Solving for Uz, Initial residual = 0.111681, Final residual = 1.23918e-06, No Iterations 1
DICPCG:  Solving for p, Initial residual = 0.000559018, Final residual = 2.44712e-05, No Iterations 69
time step continuity errors : sum local = 1.0156e-10, global = 3.46906e-12, cumulative = -6.27675e-12
DICPCG:  Solving for p, Initial residual = 3.15752e-05, Final residual = 7.35847e-07, No Iterations 70
time step continuity errors : sum local = 3.04059e-12, global = -5.33933e-14, cumulative = -6.33014e-12
ExecutionTime = 0.82 s  ClockTime = 1 s

Time = 0.03

Courant Number mean: 0.00250083 max: 0.00258081
smoothSolver:  Solving for Ux, Initial residual = 0.0914225, Final residual = 1.43391e-06, No Iterations 1
smoothSolver:  Solving for Uy, Initial residual = 0.0914226, Final residual = 1.43672e-06, No Iterations 1
smoothSolver:  Solving for Uz, Initial residual = 0.0910452, Final residual = 1.0118e-06, No Iterations 1
DICPCG:  Solving for p, Initial residual = 0.000460553, Final residual = 2.24724e-05, No Iterations 69
time step continuity errors : sum local = 9.2899e-11, global = 3.12778e-12, cumulative = -3.20236e-12
DICPCG:  Solving for p, Initial residual = 2.89648e-05, Final residual = 7.01324e-07, No Iterations 70
time step continuity errors : sum local = 2.88638e-12, global = -6.21252e-14, cumulative = -3.26449e-12
ExecutionTime = 0.94 s  ClockTime = 1 s

Time = 0.035

Courant Number mean: 0.002501 max: 0.00259635
smoothSolver:  Solving for Ux, Initial residual = 0.0771963, Final residual = 1.21108e-06, No Iterations 1
smoothSolver:  Solving for Uy, Initial residual = 0.0771964, Final residual = 1.2134e-06, No Iterations 1
smoothSolver:  Solving for Uz, Initial residual = 0.0767489, Final residual = 8.54242e-07, No Iterations 1
DICPCG:  Solving for p, Initial residual = 0.000392149, Final residual = 1.08902e-05, No Iterations 70
time step continuity errors : sum local = 4.4837e-11, global = 1.24596e-12, cumulative = -2.01853e-12
DICPCG:  Solving for p, Initial residual = 1.84271e-05, Final residual = 8.15371e-07, No Iterations 68
time step continuity errors : sum local = 3.34203e-12, global = -1.84257e-13, cumulative = -2.20278e-12
ExecutionTime = 1.07 s  ClockTime = 1 s

Time = 0.04

Courant Number mean: 0.00250116 max: 0.00261171
smoothSolver:  Solving for Ux, Initial residual = 0.0667334, Final residual = 1.04711e-06, No Iterations 1
smoothSolver:  Solving for Uy, Initial residual = 0.0667334, Final residual = 1.04908e-06, No Iterations 1
smoothSolver:  Solving for Uz, Initial residual = 0.0662602, Final residual = 7.38627e-07, No Iterations 1
DICPCG:  Solving for p, Initial residual = 0.000343423, Final residual = 1.03489e-05, No Iterations 70
time step continuity errors : sum local = 4.24323e-11, global = 1.14729e-12, cumulative = -1.05549e-12
DICPCG:  Solving for p, Initial residual = 1.77447e-05, Final residual = 7.74218e-07, No Iterations 68
time step continuity errors : sum local = 3.16012e-12, global = -1.69354e-13, cumulative = -1.22485e-12
ExecutionTime = 1.18 s  ClockTime = 1 s

Time = 0.045

Courant Number mean: 0.00250132 max: 0.00262688
smoothSolver:  Solving for Ux, Initial residual = 0.0587111, Final residual = 9.21349e-07, No Iterations 1
smoothSolver:  Solving for Uy, Initial residual = 0.0587112, Final residual = 9.23055e-07, No Iterations 1
smoothSolver:  Solving for Uz, Initial residual = 0.0582372, Final residual = 6.50172e-07, No Iterations 1
DICPCG:  Solving for p, Initial residual = 0.000306621, Final residual = 9.87275e-06, No Iterations 70
time step continuity errors : sum local = 4.03095e-11, global = 1.08974e-12, cumulative = -1.35111e-13
DICPCG:  Solving for p, Initial residual = 1.71912e-05, Final residual = 7.83197e-07, No Iterations 68
time step continuity errors : sum local = 3.18327e-12, global = -1.56403e-13, cumulative = -2.91514e-13
ExecutionTime = 1.32 s  ClockTime = 1 s

Time = 0.05

Courant Number mean: 0.00250148 max: 0.00264187
smoothSolver:  Solving for Ux, Initial residual = 0.0523679, Final residual = 8.21884e-07, No Iterations 1
smoothSolver:  Solving for Uy, Initial residual = 0.0523679, Final residual = 8.23382e-07, No Iterations 1
smoothSolver:  Solving for Uz, Initial residual = 0.0519021, Final residual = 5.80312e-07, No Iterations 1
DICPCG:  Solving for p, Initial residual = 0.000278165, Final residual = 9.24907e-06, No Iterations 70
time step continuity errors : sum local = 3.76023e-11, global = 1.02271e-12, cumulative = 7.31191e-13
DICPCG:  Solving for p, Initial residual = 1.64917e-05, Final residual = 7.98656e-07, No Iterations 68
time step continuity errors : sum local = 3.23225e-12, global = -1.49249e-13, cumulative = 5.81942e-13
ExecutionTime = 1.44 s  ClockTime = 2 s

Time = 0.055

Courant Number mean: 0.00250164 max: 0.00265669
smoothSolver:  Solving for Ux, Initial residual = 0.0472271, Final residual = 7.41258e-07, No Iterations 1
smoothSolver:  Solving for Uy, Initial residual = 0.0472271, Final residual = 7.42589e-07, No Iterations 1
smoothSolver:  Solving for Uz, Initial residual = 0.0467733, Final residual = 5.23738e-07, No Iterations 1
DICPCG:  Solving for p, Initial residual = 0.000255053, Final residual = 8.52007e-06, No Iterations 70
time step continuity errors : sum local = 3.44899e-11, global = 9.40453e-13, cumulative = 1.52239e-12
DICPCG:  Solving for p, Initial residual = 1.57244e-05, Final residual = 7.99609e-07, No Iterations 68
time step continuity errors : sum local = 3.2222e-12, global = -1.45699e-13, cumulative = 1.3767e-12
ExecutionTime = 1.56 s  ClockTime = 2 s

Time = 0.06

Courant Number mean: 0.0025018 max: 0.00267134
smoothSolver:  Solving for Ux, Initial residual = 0.0429771, Final residual = 6.74596e-07, No Iterations 1
smoothSolver:  Solving for Uy, Initial residual = 0.0429771, Final residual = 6.75791e-07, No Iterations 1
smoothSolver:  Solving for Uz, Initial residual = 0.0425364, Final residual = 4.76991e-07, No Iterations 1
DICPCG:  Solving for p, Initial residual = 0.000235944, Final residual = 7.91311e-06, No Iterations 70
time step continuity errors : sum local = 3.18947e-11, global = 8.6211e-13, cumulative = 2.23881e-12
DICPCG:  Solving for p, Initial residual = 1.50558e-05, Final residual = 7.94888e-07, No Iterations 68
time step continuity errors : sum local = 3.18936e-12, global = -1.47891e-13, cumulative = 2.09091e-12
ExecutionTime = 1.69 s  ClockTime = 2 s

Time = 0.065

Courant Number mean: 0.00250196 max: 0.00268581
smoothSolver:  Solving for Ux, Initial residual = 0.0394055, Final residual = 6.18574e-07, No Iterations 1
smoothSolver:  Solving for Uy, Initial residual = 0.0394055, Final residual = 6.19655e-07, No Iterations 1
smoothSolver:  Solving for Uz, Initial residual = 0.0389776, Final residual = 4.37712e-07, No Iterations 1
DICPCG:  Solving for p, Initial residual = 0.000219846, Final residual = 7.46559e-06, No Iterations 70
time step continuity errors : sum local = 2.99607e-11, global = 7.74177e-13, cumulative = 2.86509e-12
DICPCG:  Solving for p, Initial residual = 1.45392e-05, Final residual = 7.94076e-07, No Iterations 68
time step continuity errors : sum local = 3.17233e-12, global = -1.4926e-13, cumulative = 2.71583e-12
ExecutionTime = 1.81 s  ClockTime = 2 s

Time = 0.07

Courant Number mean: 0.00250211 max: 0.00270012
smoothSolver:  Solving for Ux, Initial residual = 0.0363626, Final residual = 5.70844e-07, No Iterations 1
smoothSolver:  Solving for Uy, Initial residual = 0.0363626, Final residual = 5.71828e-07, No Iterations 1
smoothSolver:  Solving for Uz, Initial residual = 0.0359462, Final residual = 4.04245e-07, No Iterations 1
DICPCG:  Solving for p, Initial residual = 0.000205829, Final residual = 7.22065e-06, No Iterations 70
time step continuity errors : sum local = 2.88524e-11, global = 7.01362e-13, cumulative = 3.41719e-12
DICPCG:  Solving for p, Initial residual = 1.42291e-05, Final residual = 7.81697e-07, No Iterations 68
time step continuity errors : sum local = 3.10944e-12, global = -1.47722e-13, cumulative = 3.26947e-12
ExecutionTime = 1.94 s  ClockTime = 2 s

Time = 0.075

Courant Number mean: 0.00250227 max: 0.00271427
smoothSolver:  Solving for Ux, Initial residual = 0.0337395, Final residual = 5.29701e-07, No Iterations 1
smoothSolver:  Solving for Uy, Initial residual = 0.0337395, Final residual = 5.30603e-07, No Iterations 1
smoothSolver:  Solving for Uz, Initial residual = 0.0333333, Final residual = 3.75388e-07, No Iterations 1
DICPCG:  Solving for p, Initial residual = 0.000193402, Final residual = 7.1064e-06, No Iterations 70
time step continuity errors : sum local = 2.82734e-11, global = 6.67912e-13, cumulative = 3.93738e-12
DICPCG:  Solving for p, Initial residual = 1.40411e-05, Final residual = 7.61852e-07, No Iterations 68
time step continuity errors : sum local = 3.01746e-12, global = -1.49309e-13, cumulative = 3.78807e-12
ExecutionTime = 2.08 s  ClockTime = 2 s

Time = 0.08

Courant Number mean: 0.00250242 max: 0.00272826
smoothSolver:  Solving for Ux, Initial residual = 0.0314554, Final residual = 4.93877e-07, No Iterations 1
smoothSolver:  Solving for Uy, Initial residual = 0.0314554, Final residual = 4.94708e-07, No Iterations 1
smoothSolver:  Solving for Uz, Initial residual = 0.0310579, Final residual = 3.5025e-07, No Iterations 1
DICPCG:  Solving for p, Initial residual = 0.00018226, Final residual = 6.9966e-06, No Iterations 70
time step continuity errors : sum local = 2.77166e-11, global = 6.61714e-13, cumulative = 4.44979e-12
DICPCG:  Solving for p, Initial residual = 1.38737e-05, Final residual = 7.55983e-07, No Iterations 68
time step continuity errors : sum local = 2.98133e-12, global = -1.49091e-13, cumulative = 4.3007e-12
ExecutionTime = 2.2 s  ClockTime = 2 s

Time = 0.085

Courant Number mean: 0.00250258 max: 0.00274209
smoothSolver:  Solving for Ux, Initial residual = 0.0294488, Final residual = 4.62409e-07, No Iterations 1
smoothSolver:  Solving for Uy, Initial residual = 0.0294488, Final residual = 4.63178e-07, No Iterations 1
smoothSolver:  Solving for Uz, Initial residual = 0.0290586, Final residual = 3.28154e-07, No Iterations 1
DICPCG:  Solving for p, Initial residual = 0.000172976, Final residual = 6.82195e-06, No Iterations 70
time step continuity errors : sum local = 2.69082e-11, global = 6.44878e-13, cumulative = 4.94557e-12
DICPCG:  Solving for p, Initial residual = 1.3662e-05, Final residual = 7.607e-07, No Iterations 68
time step continuity errors : sum local = 2.98703e-12, global = -1.44713e-13, cumulative = 4.80086e-12
ExecutionTime = 2.32 s  ClockTime = 2 s

Time = 0.09

Courant Number mean: 0.00250273 max: 0.00275576
smoothSolver:  Solving for Ux, Initial residual = 0.0276724, Final residual = 4.34553e-07, No Iterations 1
smoothSolver:  Solving for Uy, Initial residual = 0.0276723, Final residual = 4.35268e-07, No Iterations 1
smoothSolver:  Solving for Uz, Initial residual = 0.0272883, Final residual = 3.08581e-07, No Iterations 1
DICPCG:  Solving for p, Initial residual = 0.000165411, Final residual = 6.65499e-06, No Iterations 70
time step continuity errors : sum local = 2.61364e-11, global = 6.1062e-13, cumulative = 5.41148e-12
DICPCG:  Solving for p, Initial residual = 1.34561e-05, Final residual = 7.68195e-07, No Iterations 68
time step continuity errors : sum local = 3.00348e-12, global = -1.40793e-13, cumulative = 5.27069e-12
ExecutionTime = 2.45 s  ClockTime = 3 s

Time = 0.095

Courant Number mean: 0.00250288 max: 0.00276928
smoothSolver:  Solving for Ux, Initial residual = 0.0260888, Final residual = 4.09726e-07, No Iterations 1
smoothSolver:  Solving for Uy, Initial residual = 0.0260888, Final residual = 4.10392e-07, No Iterations 1
smoothSolver:  Solving for Uz, Initial residual = 0.0257097, Final residual = 2.91121e-07, No Iterations 1
DICPCG:  Solving for p, Initial residual = 0.000158405, Final residual = 6.5587e-06, No Iterations 70
time step continuity errors : sum local = 2.56472e-11, global = 5.72029e-13, cumulative = 5.84272e-12
DICPCG:  Solving for p, Initial residual = 1.33137e-05, Final residual = 7.67826e-07, No Iterations 68
time step continuity errors : sum local = 2.98913e-12, global = -1.38513e-13, cumulative = 5.7042e-12
ExecutionTime = 2.58 s  ClockTime = 3 s

Time = 0.1

Courant Number mean: 0.00250304 max: 0.00278265
smoothSolver:  Solving for Ux, Initial residual = 0.0246686, Final residual = 3.87462e-07, No Iterations 1
smoothSolver:  Solving for Uy, Initial residual = 0.0246686, Final residual = 3.88084e-07, No Iterations 1
smoothSolver:  Solving for Uz, Initial residual = 0.0242934, Final residual = 2.75449e-07, No Iterations 1
DICPCG:  Solving for p, Initial residual = 0.000151892, Final residual = 6.53142e-06, No Iterations 70
time step continuity errors : sum local = 2.54305e-11, global = 5.41199e-13, cumulative = 6.2454e-12
DICPCG:  Solving for p, Initial residual = 1.32276e-05, Final residual = 7.59487e-07, No Iterations 68
time step continuity errors : sum local = 2.94397e-12, global = -1.3721e-13, cumulative = 6.10819e-12
ExecutionTime = 2.8 s  ClockTime = 3 s

Time = 0.105

Courant Number mean: 0.00250319 max: 0.00279587
smoothSolver:  Solving for Ux, Initial residual = 0.0233879, Final residual = 3.67386e-07, No Iterations 1
smoothSolver:  Solving for Uy, Initial residual = 0.0233879, Final residual = 3.6797e-07, No Iterations 1
smoothSolver:  Solving for Uz, Initial residual = 0.0230157, Final residual = 2.61305e-07, No Iterations 1
DICPCG:  Solving for p, Initial residual = 0.000145831, Final residual = 6.53228e-06, No Iterations 70
time step continuity errors : sum local = 2.53244e-11, global = 5.22935e-13, cumulative = 6.63113e-12
DICPCG:  Solving for p, Initial residual = 1.3167e-05, Final residual = 9.99964e-07, No Iterations 67
time step continuity errors : sum local = 3.85948e-12, global = -2.14944e-13, cumulative = 6.41618e-12
ExecutionTime = 2.92 s  ClockTime = 3 s

Time = 0.11

Courant Number mean: 0.00250334 max: 0.00280895
smoothSolver:  Solving for Ux, Initial residual = 0.0222275, Final residual = 3.49197e-07, No Iterations 1
smoothSolver:  Solving for Uy, Initial residual = 0.0222275, Final residual = 3.49746e-07, No Iterations 1
smoothSolver:  Solving for Uz, Initial residual = 0.0218572, Final residual = 2.48475e-07, No Iterations 1
DICPCG:  Solving for p, Initial residual = 0.000140665, Final residual = 6.51805e-06, No Iterations 70
time step continuity errors : sum local = 2.51606e-11, global = 5.13854e-13, cumulative = 6.93004e-12
DICPCG:  Solving for p, Initial residual = 1.30779e-05, Final residual = 9.72336e-07, No Iterations 67
time step continuity errors : sum local = 3.73677e-12, global = -2.09031e-13, cumulative = 6.72101e-12
ExecutionTime = 3.05 s  ClockTime = 3 s

Time = 0.115

Courant Number mean: 0.00250348 max: 0.00282188
smoothSolver:  Solving for Ux, Initial residual = 0.0211703, Final residual = 3.32633e-07, No Iterations 1
smoothSolver:  Solving for Uy, Initial residual = 0.0211703, Final residual = 3.33149e-07, No Iterations 1
smoothSolver:  Solving for Uz, Initial residual = 0.020802, Final residual = 2.36784e-07, No Iterations 1
DICPCG:  Solving for p, Initial residual = 0.000135078, Final residual = 6.54756e-06, No Iterations 70
time step continuity errors : sum local = 2.51661e-11, global = 5.14312e-13, cumulative = 7.23532e-12
DICPCG:  Solving for p, Initial residual = 1.30473e-05, Final residual = 9.57868e-07, No Iterations 67
time step continuity errors : sum local = 3.66541e-12, global = -2.07655e-13, cumulative = 7.02766e-12
ExecutionTime = 3.18 s  ClockTime = 3 s

Time = 0.12

Courant Number mean: 0.00250363 max: 0.00283467
smoothSolver:  Solving for Ux, Initial residual = 0.0202042, Final residual = 3.17494e-07, No Iterations 1
smoothSolver:  Solving for Uy, Initial residual = 0.0202042, Final residual = 3.17982e-07, No Iterations 1
smoothSolver:  Solving for Uz, Initial residual = 0.0198373, Final residual = 2.26087e-07, No Iterations 1
DICPCG:  Solving for p, Initial residual = 0.000130758, Final residual = 6.47329e-06, No Iterations 70
time step continuity errors : sum local = 2.4774e-11, global = 5.07959e-13, cumulative = 7.53562e-12
DICPCG:  Solving for p, Initial residual = 1.29204e-05, Final residual = 9.45366e-07, No Iterations 67
time step continuity errors : sum local = 3.60212e-12, global = -2.06215e-13, cumulative = 7.32941e-12
ExecutionTime = 3.31 s  ClockTime = 3 s

Time = 0.125

Courant Number mean: 0.00250378 max: 0.00284733
smoothSolver:  Solving for Ux, Initial residual = 0.0193176, Final residual = 3.03604e-07, No Iterations 1
smoothSolver:  Solving for Uy, Initial residual = 0.0193176, Final residual = 3.04066e-07, No Iterations 1
smoothSolver:  Solving for Uz, Initial residual = 0.0189517, Final residual = 2.16262e-07, No Iterations 1
DICPCG:  Solving for p, Initial residual = 0.000126718, Final residual = 3.52651e-06, No Iterations 71
time step continuity errors : sum local = 1.34386e-11, global = 1.23898e-13, cumulative = 7.45331e-12
DICPCG:  Solving for p, Initial residual = 1.04906e-05, Final residual = 9.82535e-07, No Iterations 4
time step continuity errors : sum local = 3.72778e-12, global = -1.14441e-12, cumulative = 6.3089e-12
ExecutionTime = 3.41 s  ClockTime = 4 s

Time = 0.13

Courant Number mean: 0.00250392 max: 0.00285984
smoothSolver:  Solving for Ux, Initial residual = 0.0185024, Final residual = 2.90826e-07, No Iterations 1
smoothSolver:  Solving for Uy, Initial residual = 0.0185024, Final residual = 2.91264e-07, No Iterations 1
smoothSolver:  Solving for Uz, Initial residual = 0.0181356, Final residual = 2.07206e-07, No Iterations 1
DICPCG:  Solving for p, Initial residual = 0.000123185, Final residual = 3.3553e-06, No Iterations 71
time step continuity errors : sum local = 1.27313e-11, global = 1.42531e-13, cumulative = 6.45143e-12
DICPCG:  Solving for p, Initial residual = 1.03062e-05, Final residual = 9.22258e-07, No Iterations 4
time step continuity errors : sum local = 3.4843e-12, global = -1.11718e-12, cumulative = 5.33425e-12
ExecutionTime = 3.51 s  ClockTime = 4 s

Time = 0.135

Courant Number mean: 0.00250407 max: 0.00287222
smoothSolver:  Solving for Ux, Initial residual = 0.0177472, Final residual = 2.79002e-07, No Iterations 1
smoothSolver:  Solving for Uy, Initial residual = 0.0177472, Final residual = 2.79417e-07, No Iterations 1
smoothSolver:  Solving for Uz, Initial residual = 0.0173819, Final residual = 1.98835e-07, No Iterations 1
DICPCG:  Solving for p, Initial residual = 0.000118973, Final residual = 3.39756e-06, No Iterations 71
time step continuity errors : sum local = 1.28371e-11, global = 1.22275e-13, cumulative = 5.45652e-12
DICPCG:  Solving for p, Initial residual = 1.02729e-05, Final residual = 9.58055e-07, No Iterations 4
time step continuity errors : sum local = 3.60418e-12, global = -1.11852e-12, cumulative = 4.338e-12
ExecutionTime = 3.59 s  ClockTime = 4 s

Time = 0.14

Courant Number mean: 0.00250421 max: 0.00288446
smoothSolver:  Solving for Ux, Initial residual = 0.0170483, Final residual = 2.68057e-07, No Iterations 1
smoothSolver:  Solving for Uy, Initial residual = 0.0170483, Final residual = 2.68451e-07, No Iterations 1
smoothSolver:  Solving for Uz, Initial residual = 0.016683, Final residual = 1.91071e-07, No Iterations 1
DICPCG:  Solving for p, Initial residual = 0.000115648, Final residual = 3.34947e-06, No Iterations 71
time step continuity errors : sum local = 1.26017e-11, global = 1.21732e-13, cumulative = 4.45973e-12
DICPCG:  Solving for p, Initial residual = 1.01901e-05, Final residual = 9.38673e-07, No Iterations 4
time step continuity errors : sum local = 3.51633e-12, global = -1.10889e-12, cumulative = 3.35085e-12
ExecutionTime = 3.68 s  ClockTime = 4 s

Time = 0.145

Courant Number mean: 0.00250436 max: 0.00289657
smoothSolver:  Solving for Ux, Initial residual = 0.016399, Final residual = 2.57887e-07, No Iterations 1
smoothSolver:  Solving for Uy, Initial residual = 0.016399, Final residual = 2.58263e-07, No Iterations 1
smoothSolver:  Solving for Uz, Initial residual = 0.0160336, Final residual = 1.83851e-07, No Iterations 1
DICPCG:  Solving for p, Initial residual = 0.000112436, Final residual = 3.34502e-06, No Iterations 71
time step continuity errors : sum local = 1.25316e-11, global = 1.12438e-13, cumulative = 3.46329e-12
DICPCG:  Solving for p, Initial residual = 1.014e-05, Final residual = 9.4418e-07, No Iterations 4
time step continuity errors : sum local = 3.52203e-12, global = -1.10097e-12, cumulative = 2.36231e-12
ExecutionTime = 3.77 s  ClockTime = 4 s

Time = 0.15

Courant Number mean: 0.0025045 max: 0.00290855
smoothSolver:  Solving for Ux, Initial residual = 0.0157942, Final residual = 2.48416e-07, No Iterations 1
smoothSolver:  Solving for Uy, Initial residual = 0.0157943, Final residual = 2.48774e-07, No Iterations 1
smoothSolver:  Solving for Uz, Initial residual = 0.0154322, Final residual = 1.7712e-07, No Iterations 1
DICPCG:  Solving for p, Initial residual = 0.000109452, Final residual = 3.33047e-06, No Iterations 71
time step continuity errors : sum local = 1.24244e-11, global = 1.07303e-13, cumulative = 2.46962e-12
DICPCG:  Solving for p, Initial residual = 1.00864e-05, Final residual = 9.37838e-07, No Iterations 4
time step continuity errors : sum local = 3.48365e-12, global = -1.09228e-12, cumulative = 1.37734e-12
ExecutionTime = 3.85 s  ClockTime = 4 s

Time = 0.155

Courant Number mean: 0.00250464 max: 0.0029204
smoothSolver:  Solving for Ux, Initial residual = 0.0152296, Final residual = 2.39573e-07, No Iterations 1
smoothSolver:  Solving for Uy, Initial residual = 0.0152296, Final residual = 2.39915e-07, No Iterations 1
smoothSolver:  Solving for Uz, Initial residual = 0.0148788, Final residual = 1.70831e-07, No Iterations 1
DICPCG:  Solving for p, Initial residual = 0.000106625, Final residual = 3.32762e-06, No Iterations 71
time step continuity errors : sum local = 1.23615e-11, global = 1.00932e-13, cumulative = 1.47827e-12
DICPCG:  Solving for p, Initial residual = 1.00439e-05, Final residual = 9.3683e-07, No Iterations 4
time step continuity errors : sum local = 3.4653e-12, global = -1.08381e-12, cumulative = 3.94464e-13
ExecutionTime = 3.94 s  ClockTime = 4 s

Time = 0.16

Courant Number mean: 0.00250478 max: 0.00293213
smoothSolver:  Solving for Ux, Initial residual = 0.0147012, Final residual = 2.31299e-07, No Iterations 1
smoothSolver:  Solving for Uy, Initial residual = 0.0147012, Final residual = 2.31625e-07, No Iterations 1
smoothSolver:  Solving for Uz, Initial residual = 0.0143608, Final residual = 1.6494e-07, No Iterations 1
DICPCG:  Solving for p, Initial residual = 0.000103955, Final residual = 3.32364e-06, No Iterations 71
time step continuity errors : sum local = 1.22948e-11, global = 9.61506e-14, cumulative = 4.90615e-13
DICPCG:  Solving for p, Initial residual = 1.00025e-05, Final residual = 9.33111e-07, No Iterations 4
time step continuity errors : sum local = 3.43709e-12, global = -1.07515e-12, cumulative = -5.84535e-13
ExecutionTime = 4.02 s  ClockTime = 4 s

Time = 0.165

Courant Number mean: 0.00250492 max: 0.00294373
smoothSolver:  Solving for Ux, Initial residual = 0.0142058, Final residual = 2.2354e-07, No Iterations 1
smoothSolver:  Solving for Uy, Initial residual = 0.0142058, Final residual = 2.23852e-07, No Iterations 1
smoothSolver:  Solving for Uz, Initial residual = 0.0138748, Final residual = 1.59412e-07, No Iterations 1
DICPCG:  Solving for p, Initial residual = 0.000101697, Final residual = 3.32306e-06, No Iterations 71
time step continuity errors : sum local = 1.22412e-11, global = 9.18518e-14, cumulative = -4.92683e-13
DICPCG:  Solving for p, Initial residual = 9.96464e-06, Final residual = 9.30609e-07, No Iterations 4
time step continuity errors : sum local = 3.41356e-12, global = -1.06649e-12, cumulative = -1.55918e-12
ExecutionTime = 4.11 s  ClockTime = 4 s

Time = 0.17

Courant Number mean: 0.00250506 max: 0.0029552
smoothSolver:  Solving for Ux, Initial residual = 0.0137403, Final residual = 2.16249e-07, No Iterations 1
smoothSolver:  Solving for Uy, Initial residual = 0.0137403, Final residual = 2.16548e-07, No Iterations 1
smoothSolver:  Solving for Uz, Initial residual = 0.0134182, Final residual = 1.54214e-07, No Iterations 1
DICPCG:  Solving for p, Initial residual = 9.9662e-05, Final residual = 3.32217e-06, No Iterations 71
time step continuity errors : sum local = 1.21868e-11, global = 8.85615e-14, cumulative = -1.47061e-12
DICPCG:  Solving for p, Initial residual = 9.92679e-06, Final residual = 9.27393e-07, No Iterations 4
time step continuity errors : sum local = 3.38761e-12, global = -1.0578e-12, cumulative = -2.52841e-12
ExecutionTime = 4.19 s  ClockTime = 4 s

Time = 0.175

Courant Number mean: 0.0025052 max: 0.00296655
smoothSolver:  Solving for Ux, Initial residual = 0.0133021, Final residual = 2.09387e-07, No Iterations 1
smoothSolver:  Solving for Uy, Initial residual = 0.0133021, Final residual = 2.09673e-07, No Iterations 1
smoothSolver:  Solving for Uz, Initial residual = 0.0129882, Final residual = 1.49317e-07, No Iterations 1
DICPCG:  Solving for p, Initial residual = 9.7737e-05, Final residual = 3.32205e-06, No Iterations 71
time step continuity errors : sum local = 1.21356e-11, global = 8.60326e-14, cumulative = -2.44238e-12
DICPCG:  Solving for p, Initial residual = 9.89028e-06, Final residual = 9.24388e-07, No Iterations 4
time step continuity errors : sum local = 3.36262e-12, global = -1.04912e-12, cumulative = -3.4915e-12
ExecutionTime = 4.28 s  ClockTime = 4 s

Time = 0.18

Courant Number mean: 0.00250534 max: 0.00297778
smoothSolver:  Solving for Ux, Initial residual = 0.0128889, Final residual = 2.02915e-07, No Iterations 1
smoothSolver:  Solving for Uy, Initial residual = 0.0128889, Final residual = 2.0319e-07, No Iterations 1
smoothSolver:  Solving for Uz, Initial residual = 0.0125826, Final residual = 1.44695e-07, No Iterations 1
DICPCG:  Solving for p, Initial residual = 9.62922e-05, Final residual = 3.32029e-06, No Iterations 71
time step continuity errors : sum local = 1.20788e-11, global = 8.42557e-14, cumulative = -3.40724e-12
DICPCG:  Solving for p, Initial residual = 9.85361e-06, Final residual = 9.21129e-07, No Iterations 4
time step continuity errors : sum local = 3.3369e-12, global = -1.04047e-12, cumulative = -4.44771e-12
ExecutionTime = 4.36 s  ClockTime = 5 s

Time = 0.185

Courant Number mean: 0.00250548 max: 0.00298889
smoothSolver:  Solving for Ux, Initial residual = 0.0124987, Final residual = 1.96803e-07, No Iterations 1
smoothSolver:  Solving for Uy, Initial residual = 0.0124987, Final residual = 1.97067e-07, No Iterations 1
smoothSolver:  Solving for Uz, Initial residual = 0.0121994, Final residual = 1.40327e-07, No Iterations 1
DICPCG:  Solving for p, Initial residual = 9.52292e-05, Final residual = 3.31713e-06, No Iterations 71
time step continuity errors : sum local = 1.20173e-11, global = 8.31475e-14, cumulative = -4.36456e-12
DICPCG:  Solving for p, Initial residual = 9.81755e-06, Final residual = 9.17854e-07, No Iterations 4
time step continuity errors : sum local = 3.31132e-12, global = -1.03185e-12, cumulative = -5.39641e-12
ExecutionTime = 4.45 s  ClockTime = 5 s

Time = 0.19

Courant Number mean: 0.00250562 max: 0.00299988
smoothSolver:  Solving for Ux, Initial residual = 0.0121296, Final residual = 1.91021e-07, No Iterations 1
smoothSolver:  Solving for Uy, Initial residual = 0.0121296, Final residual = 1.91274e-07, No Iterations 1
smoothSolver:  Solving for Uz, Initial residual = 0.0118367, Final residual = 1.36192e-07, No Iterations 1
DICPCG:  Solving for p, Initial residual = 9.42024e-05, Final residual = 3.31316e-06, No Iterations 71
time step continuity errors : sum local = 1.19534e-11, global = 8.26077e-14, cumulative = -5.3138e-12
DICPCG:  Solving for p, Initial residual = 9.77992e-06, Final residual = 9.1445e-07, No Iterations 4
time step continuity errors : sum local = 3.28548e-12, global = -1.0233e-12, cumulative = -6.33711e-12
ExecutionTime = 4.53 s  ClockTime = 5 s

Time = 0.195

Courant Number mean: 0.00250575 max: 0.00301075
smoothSolver:  Solving for Ux, Initial residual = 0.0117799, Final residual = 1.85542e-07, No Iterations 1
smoothSolver:  Solving for Uy, Initial residual = 0.0117799, Final residual = 1.85785e-07, No Iterations 1
smoothSolver:  Solving for Uz, Initial residual = 0.011493, Final residual = 1.32272e-07, No Iterations 1
DICPCG:  Solving for p, Initial residual = 9.33166e-05, Final residual = 3.30915e-06, No Iterations 71
time step continuity errors : sum local = 1.18899e-11, global = 8.26294e-14, cumulative = -6.25448e-12
DICPCG:  Solving for p, Initial residual = 9.74207e-06, Final residual = 9.10935e-07, No Iterations 4
time step continuity errors : sum local = 3.25944e-12, global = -1.01481e-12, cumulative = -7.26929e-12
ExecutionTime = 4.61 s  ClockTime = 5 s

Time = 0.2

Courant Number mean: 0.00250589 max: 0.00302151
smoothSolver:  Solving for Ux, Initial residual = 0.0114481, Final residual = 1.80344e-07, No Iterations 1
smoothSolver:  Solving for Uy, Initial residual = 0.0114481, Final residual = 1.80578e-07, No Iterations 1
smoothSolver:  Solving for Uz, Initial residual = 0.0111668, Final residual = 1.28551e-07, No Iterations 1
DICPCG:  Solving for p, Initial residual = 9.26518e-05, Final residual = 3.30405e-06, No Iterations 71
time step continuity errors : sum local = 1.18229e-11, global = 8.31459e-14, cumulative = -7.18614e-12
DICPCG:  Solving for p, Initial residual = 9.70359e-06, Final residual = 9.07307e-07, No Iterations 4
time step continuity errors : sum local = 3.23321e-12, global = -1.00639e-12, cumulative = -8.19253e-12
ExecutionTime = 4.78 s  ClockTime = 5 s

Time = 0.205

Courant Number mean: 0.00250602 max: 0.00303215
smoothSolver:  Solving for Ux, Initial residual = 0.011133, Final residual = 1.75406e-07, No Iterations 1
smoothSolver:  Solving for Uy, Initial residual = 0.011133, Final residual = 1.75631e-07, No Iterations 1
smoothSolver:  Solving for Uz, Initial residual = 0.0108568, Final residual = 1.25013e-07, No Iterations 1
DICPCG:  Solving for p, Initial residual = 9.2063e-05, Final residual = 3.29778e-06, No Iterations 71
time step continuity errors : sum local = 1.17522e-11, global = 8.41528e-14, cumulative = -8.10838e-12
DICPCG:  Solving for p, Initial residual = 9.66406e-06, Final residual = 9.03529e-07, No Iterations 4
time step continuity errors : sum local = 3.20664e-12, global = -9.98025e-13, cumulative = -9.10641e-12
ExecutionTime = 4.87 s  ClockTime = 5 s

Time = 0.21

Courant Number mean: 0.00250615 max: 0.00304268
smoothSolver:  Solving for Ux, Initial residual = 0.0108332, Final residual = 1.70708e-07, No Iterations 1
smoothSolver:  Solving for Uy, Initial residual = 0.0108332, Final residual = 1.70925e-07, No Iterations 1
smoothSolver:  Solving for Uz, Initial residual = 0.0105619, Final residual = 1.21646e-07, No Iterations 1
DICPCG:  Solving for p, Initial residual = 9.16727e-05, Final residual = 3.29025e-06, No Iterations 71
time step continuity errors : sum local = 1.16776e-11, global = 8.55663e-14, cumulative = -9.02084e-12
DICPCG:  Solving for p, Initial residual = 9.62276e-06, Final residual = 8.99567e-07, No Iterations 4
time step continuity errors : sum local = 3.17962e-12, global = -9.89728e-13, cumulative = -1.00106e-11
ExecutionTime = 4.95 s  ClockTime = 5 s

Time = 0.215

Courant Number mean: 0.00250629 max: 0.0030531
smoothSolver:  Solving for Ux, Initial residual = 0.0105478, Final residual = 1.66234e-07, No Iterations 1
smoothSolver:  Solving for Uy, Initial residual = 0.0105478, Final residual = 1.66443e-07, No Iterations 1
smoothSolver:  Solving for Uz, Initial residual = 0.0102809, Final residual = 1.18438e-07, No Iterations 1
DICPCG:  Solving for p, Initial residual = 9.15722e-05, Final residual = 3.27975e-06, No Iterations 71
time step continuity errors : sum local = 1.15931e-11, global = 8.73552e-14, cumulative = -9.92321e-12
DICPCG:  Solving for p, Initial residual = 9.57858e-06, Final residual = 8.95236e-07, No Iterations 4
time step continuity errors : sum local = 3.15152e-12, global = -9.81485e-13, cumulative = -1.09047e-11
ExecutionTime = 5.04 s  ClockTime = 5 s

Time = 0.22

Courant Number mean: 0.00250642 max: 0.0030634
smoothSolver:  Solving for Ux, Initial residual = 0.0102757, Final residual = 1.61968e-07, No Iterations 1
smoothSolver:  Solving for Uy, Initial residual = 0.0102757, Final residual = 1.6217e-07, No Iterations 1
smoothSolver:  Solving for Uz, Initial residual = 0.0100129, Final residual = 1.15377e-07, No Iterations 1
DICPCG:  Solving for p, Initial residual = 9.15789e-05, Final residual = 3.26355e-06, No Iterations 71
time step continuity errors : sum local = 1.14892e-11, global = 8.94204e-14, cumulative = -1.08153e-11
DICPCG:  Solving for p, Initial residual = 9.52961e-06, Final residual = 8.90907e-07, No Iterations 4
time step continuity errors : sum local = 3.12364e-12, global = -9.73305e-13, cumulative = -1.17886e-11
ExecutionTime = 5.12 s  ClockTime = 5 s

Time = 0.225

Courant Number mean: 0.00250655 max: 0.0030736
smoothSolver:  Solving for Ux, Initial residual = 0.010016, Final residual = 1.57896e-07, No Iterations 1
smoothSolver:  Solving for Uy, Initial residual = 0.010016, Final residual = 1.58091e-07, No Iterations 1
smoothSolver:  Solving for Uz, Initial residual = 0.00975709, Final residual = 1.12454e-07, No Iterations 1
DICPCG:  Solving for p, Initial residual = 9.20129e-05, Final residual = 3.25268e-06, No Iterations 71
time step continuity errors : sum local = 1.14048e-11, global = 9.21885e-14, cumulative = -1.16964e-11
DICPCG:  Solving for p, Initial residual = 9.48814e-06, Final residual = 8.87121e-07, No Iterations 4
time step continuity errors : sum local = 3.09788e-12, global = -9.65113e-13, cumulative = -1.26615e-11
ExecutionTime = 5.2 s  ClockTime = 5 s

Time = 0.23

Courant Number mean: 0.00250668 max: 0.00308368
smoothSolver:  Solving for Ux, Initial residual = 0.00976795, Final residual = 1.54005e-07, No Iterations 1
smoothSolver:  Solving for Uy, Initial residual = 0.00976795, Final residual = 1.54193e-07, No Iterations 1
smoothSolver:  Solving for Uz, Initial residual = 0.00951263, Final residual = 1.0966e-07, No Iterations 1
DICPCG:  Solving for p, Initial residual = 9.24099e-05, Final residual = 3.23892e-06, No Iterations 71
time step continuity errors : sum local = 1.13109e-11, global = 9.50039e-14, cumulative = -1.25665e-11
DICPCG:  Solving for p, Initial residual = 9.44303e-06, Final residual = 8.82788e-07, No Iterations 4
time step continuity errors : sum local = 3.07041e-12, global = -9.5699e-13, cumulative = -1.35235e-11
ExecutionTime = 5.29 s  ClockTime = 5 s

Time = 0.235

Courant Number mean: 0.00250681 max: 0.00309366
smoothSolver:  Solving for Ux, Initial residual = 0.00953072, Final residual = 1.50284e-07, No Iterations 1
smoothSolver:  Solving for Uy, Initial residual = 0.00953072, Final residual = 1.50465e-07, No Iterations 1
smoothSolver:  Solving for Uz, Initial residual = 0.00927881, Final residual = 1.06986e-07, No Iterations 1
DICPCG:  Solving for p, Initial residual = 9.27759e-05, Final residual = 3.22972e-06, No Iterations 71
time step continuity errors : sum local = 1.12336e-11, global = 9.83115e-14, cumulative = -1.34252e-11
DICPCG:  Solving for p, Initial residual = 9.40281e-06, Final residual = 8.78712e-07, No Iterations 4
time step continuity errors : sum local = 3.04404e-12, global = -9.48858e-13, cumulative = -1.4374e-11
ExecutionTime = 5.37 s  ClockTime = 6 s

Time = 0.24

Courant Number mean: 0.00250694 max: 0.00310353
smoothSolver:  Solving for Ux, Initial residual = 0.00930365, Final residual = 1.46721e-07, No Iterations 1
smoothSolver:  Solving for Uy, Initial residual = 0.00930365, Final residual = 1.46896e-07, No Iterations 1
smoothSolver:  Solving for Uz, Initial residual = 0.00905493, Final residual = 1.04425e-07, No Iterations 1
DICPCG:  Solving for p, Initial residual = 9.31075e-05, Final residual = 3.22523e-06, No Iterations 71
time step continuity errors : sum local = 1.11732e-11, global = 1.01955e-13, cumulative = -1.42721e-11
DICPCG:  Solving for p, Initial residual = 9.36688e-06, Final residual = 8.7473e-07, No Iterations 4
time step continuity errors : sum local = 3.0182e-12, global = -9.40731e-13, cumulative = -1.52128e-11
ExecutionTime = 5.46 s  ClockTime = 6 s

Time = 0.245

Courant Number mean: 0.00250707 max: 0.0031133
smoothSolver:  Solving for Ux, Initial residual = 0.00908611, Final residual = 1.43307e-07, No Iterations 1
smoothSolver:  Solving for Uy, Initial residual = 0.00908611, Final residual = 1.43476e-07, No Iterations 1
smoothSolver:  Solving for Uz, Initial residual = 0.00884521, Final residual = 1.01969e-07, No Iterations 1
DICPCG:  Solving for p, Initial residual = 9.36503e-05, Final residual = 3.2229e-06, No Iterations 71
time step continuity errors : sum local = 1.11208e-11, global = 1.058e-13, cumulative = -1.5107e-11
DICPCG:  Solving for p, Initial residual = 9.33335e-06, Final residual = 8.7081e-07, No Iterations 4
time step continuity errors : sum local = 2.99276e-12, global = -9.32611e-13, cumulative = -1.60396e-11
ExecutionTime = 5.54 s  ClockTime = 6 s

Time = 0.25

Courant Number mean: 0.0025072 max: 0.00312296
smoothSolver:  Solving for Ux, Initial residual = 0.00887753, Final residual = 1.40032e-07, No Iterations 1
smoothSolver:  Solving for Uy, Initial residual = 0.00887753, Final residual = 1.40196e-07, No Iterations 1
smoothSolver:  Solving for Uz, Initial residual = 0.00864452, Final residual = 9.96135e-08, No Iterations 1
DICPCG:  Solving for p, Initial residual = 9.44225e-05, Final residual = 3.22477e-06, No Iterations 71
time step continuity errors : sum local = 1.10831e-11, global = 1.09954e-13, cumulative = -1.59297e-11
DICPCG:  Solving for p, Initial residual = 9.30497e-06, Final residual = 8.6759e-07, No Iterations 4
time step continuity errors : sum local = 2.96992e-12, global = -9.2448e-13, cumulative = -1.68542e-11
ExecutionTime = 5.63 s  ClockTime = 6 s

Time = 0.255

Courant Number mean: 0.00250732 max: 0.00313252
smoothSolver:  Solving for Ux, Initial residual = 0.00867735, Final residual = 1.36889e-07, No Iterations 1
smoothSolver:  Solving for Uy, Initial residual = 0.00867735, Final residual = 1.37047e-07, No Iterations 1
smoothSolver:  Solving for Uz, Initial residual = 0.00845189, Final residual = 9.73514e-08, No Iterations 1
DICPCG:  Solving for p, Initial residual = 9.5171e-05, Final residual = 3.2286e-06, No Iterations 71
time step continuity errors : sum local = 1.10524e-11, global = 1.14012e-13, cumulative = -1.67401e-11
DICPCG:  Solving for p, Initial residual = 9.27775e-06, Final residual = 8.64082e-07, No Iterations 4
time step continuity errors : sum local = 2.94627e-12, global = -9.16382e-13, cumulative = -1.76565e-11
ExecutionTime = 5.71 s  ClockTime = 6 s

Time = 0.26

Courant Number mean: 0.00250745 max: 0.00314198
smoothSolver:  Solving for Ux, Initial residual = 0.00848511, Final residual = 1.33869e-07, No Iterations 1
smoothSolver:  Solving for Uy, Initial residual = 0.00848511, Final residual = 1.34022e-07, No Iterations 1
smoothSolver:  Solving for Uz, Initial residual = 0.00826678, Final residual = 9.51774e-08, No Iterations 1
DICPCG:  Solving for p, Initial residual = 9.58695e-05, Final residual = 3.23151e-06, No Iterations 71
time step continuity errors : sum local = 1.10188e-11, global = 1.17691e-13, cumulative = -1.75388e-11
DICPCG:  Solving for p, Initial residual = 9.24959e-06, Final residual = 8.60213e-07, No Iterations 4
time step continuity errors : sum local = 2.92158e-12, global = -9.08359e-13, cumulative = -1.84472e-11
ExecutionTime = 5.8 s  ClockTime = 6 s

Time = 0.265

Courant Number mean: 0.00250758 max: 0.00315133
smoothSolver:  Solving for Ux, Initial residual = 0.00830033, Final residual = 1.30966e-07, No Iterations 1
smoothSolver:  Solving for Uy, Initial residual = 0.00830033, Final residual = 1.31114e-07, No Iterations 1
smoothSolver:  Solving for Uz, Initial residual = 0.00808878, Final residual = 9.30866e-08, No Iterations 1
DICPCG:  Solving for p, Initial residual = 9.65201e-05, Final residual = 3.23597e-06, No Iterations 71
time step continuity errors : sum local = 1.09908e-11, global = 1.20953e-13, cumulative = -1.83262e-11
DICPCG:  Solving for p, Initial residual = 9.22293e-06, Final residual = 8.5624e-07, No Iterations 4
time step continuity errors : sum local = 2.89672e-12, global = -9.0042e-13, cumulative = -1.92267e-11
ExecutionTime = 5.88 s  ClockTime = 6 s

Time = 0.27

Courant Number mean: 0.0025077 max: 0.00316059
smoothSolver:  Solving for Ux, Initial residual = 0.0081226, Final residual = 1.28173e-07, No Iterations 1
smoothSolver:  Solving for Uy, Initial residual = 0.0081226, Final residual = 1.28316e-07, No Iterations 1
smoothSolver:  Solving for Uz, Initial residual = 0.00791757, Final residual = 9.10744e-08, No Iterations 1
DICPCG:  Solving for p, Initial residual = 9.71201e-05, Final residual = 3.24282e-06, No Iterations 71
time step continuity errors : sum local = 1.0971e-11, global = 1.2374e-13, cumulative = -1.91029e-11
DICPCG:  Solving for p, Initial residual = 9.19828e-06, Final residual = 8.52209e-07, No Iterations 4
time step continuity errors : sum local = 2.87187e-12, global = -8.92589e-13, cumulative = -1.99955e-11
ExecutionTime = 5.97 s  ClockTime = 6 s

Time = 0.275

Courant Number mean: 0.00250783 max: 0.00316974
smoothSolver:  Solving for Ux, Initial residual = 0.00795154, Final residual = 1.25483e-07, No Iterations 1
smoothSolver:  Solving for Uy, Initial residual = 0.00795154, Final residual = 1.25622e-07, No Iterations 1
smoothSolver:  Solving for Uz, Initial residual = 0.00775268, Final residual = 8.91363e-08, No Iterations 1
DICPCG:  Solving for p, Initial residual = 9.76791e-05, Final residual = 3.25144e-06, No Iterations 71
time step continuity errors : sum local = 1.09574e-11, global = 1.25982e-13, cumulative = -1.98695e-11
DICPCG:  Solving for p, Initial residual = 9.17536e-06, Final residual = 8.48108e-07, No Iterations 4
time step continuity errors : sum local = 2.84698e-12, global = -8.84892e-13, cumulative = -2.07544e-11
ExecutionTime = 6.05 s  ClockTime = 6 s

Time = 0.28

Courant Number mean: 0.00250795 max: 0.0031788
smoothSolver:  Solving for Ux, Initial residual = 0.00778677, Final residual = 1.22892e-07, No Iterations 1
smoothSolver:  Solving for Uy, Initial residual = 0.00778677, Final residual = 1.23027e-07, No Iterations 1
smoothSolver:  Solving for Uz, Initial residual = 0.00759378, Final residual = 8.72685e-08, No Iterations 1
DICPCG:  Solving for p, Initial residual = 9.81926e-05, Final residual = 3.26131e-06, No Iterations 71
time step continuity errors : sum local = 1.09481e-11, global = 1.27649e-13, cumulative = -2.06268e-11
DICPCG:  Solving for p, Initial residual = 9.15322e-06, Final residual = 8.4392e-07, No Iterations 4
time step continuity errors : sum local = 2.82199e-12, global = -8.77358e-13, cumulative = -2.15041e-11
ExecutionTime = 6.14 s  ClockTime = 6 s

Time = 0.285

Courant Number mean: 0.00250807 max: 0.00318776
smoothSolver:  Solving for Ux, Initial residual = 0.00762797, Final residual = 1.20394e-07, No Iterations 1
smoothSolver:  Solving for Uy, Initial residual = 0.00762797, Final residual = 1.20525e-07, No Iterations 1
smoothSolver:  Solving for Uz, Initial residual = 0.00744055, Final residual = 8.54703e-08, No Iterations 1
DICPCG:  Solving for p, Initial residual = 9.86662e-05, Final residual = 3.27119e-06, No Iterations 71
time step continuity errors : sum local = 1.09388e-11, global = 1.28762e-13, cumulative = -2.13754e-11
DICPCG:  Solving for p, Initial residual = 9.13126e-06, Final residual = 8.39669e-07, No Iterations 4
time step continuity errors : sum local = 2.79697e-12, global = -8.70005e-13, cumulative = -2.22454e-11
ExecutionTime = 6.22 s  ClockTime = 6 s

Time = 0.29

Courant Number mean: 0.0025082 max: 0.00319663
smoothSolver:  Solving for Ux, Initial residual = 0.00747481, Final residual = 1.17984e-07, No Iterations 1
smoothSolver:  Solving for Uy, Initial residual = 0.00747481, Final residual = 1.18111e-07, No Iterations 1
smoothSolver:  Solving for Uz, Initial residual = 0.00729269, Final residual = 8.37405e-08, No Iterations 1
DICPCG:  Solving for p, Initial residual = 9.9097e-05, Final residual = 3.27978e-06, No Iterations 71
time step continuity errors : sum local = 1.09253e-11, global = 1.29406e-13, cumulative = -2.2116e-11
DICPCG:  Solving for p, Initial residual = 9.10835e-06, Final residual = 8.35333e-07, No Iterations 4
time step continuity errors : sum local = 2.77186e-12, global = -8.6285e-13, cumulative = -2.29788e-11
ExecutionTime = 6.3 s  ClockTime = 6 s

Time = 0.295

Courant Number mean: 0.00250832 max: 0.0032054
smoothSolver:  Solving for Ux, Initial residual = 0.00732702, Final residual = 1.15657e-07, No Iterations 1
smoothSolver:  Solving for Uy, Initial residual = 0.00732702, Final residual = 1.1578e-07, No Iterations 1
smoothSolver:  Solving for Uz, Initial residual = 0.00714997, Final residual = 8.20703e-08, No Iterations 1
DICPCG:  Solving for p, Initial residual = 9.95001e-05, Final residual = 3.28584e-06, No Iterations 71
time step continuity errors : sum local = 1.09035e-11, global = 1.29714e-13, cumulative = -2.28491e-11
DICPCG:  Solving for p, Initial residual = 9.08346e-06, Final residual = 8.30957e-07, No Iterations 4
time step continuity errors : sum local = 2.74681e-12, global = -8.55889e-13, cumulative = -2.3705e-11
ExecutionTime = 6.39 s  ClockTime = 7 s

Time = 0.3

Courant Number mean: 0.00250844 max: 0.00321408
smoothSolver:  Solving for Ux, Initial residual = 0.00718432, Final residual = 1.1341e-07, No Iterations 1
smoothSolver:  Solving for Uy, Initial residual = 0.00718432, Final residual = 1.1353e-07, No Iterations 1
smoothSolver:  Solving for Uz, Initial residual = 0.00701209, Final residual = 8.04566e-08, No Iterations 1
DICPCG:  Solving for p, Initial residual = 9.98654e-05, Final residual = 3.2885e-06, No Iterations 71
time step continuity errors : sum local = 1.08707e-11, global = 1.29886e-13, cumulative = -2.35751e-11
DICPCG:  Solving for p, Initial residual = 9.05595e-06, Final residual = 8.26554e-07, No Iterations 4
time step continuity errors : sum local = 2.72186e-12, global = -8.49109e-13, cumulative = -2.44242e-11
ExecutionTime = 6.55 s  ClockTime = 7 s

Time = 0.305

Courant Number mean: 0.00250856 max: 0.00322266
smoothSolver:  Solving for Ux, Initial residual = 0.00704645, Final residual = 1.11239e-07, No Iterations 1
smoothSolver:  Solving for Uy, Initial residual = 0.00704646, Final residual = 1.11355e-07, No Iterations 1
smoothSolver:  Solving for Uz, Initial residual = 0.00687781, Final residual = 7.88854e-08, No Iterations 1
DICPCG:  Solving for p, Initial residual = 0.000100199, Final residual = 3.28732e-06, No Iterations 71
time step continuity errors : sum local = 1.08254e-11, global = 1.30127e-13, cumulative = -2.42941e-11
DICPCG:  Solving for p, Initial residual = 9.02554e-06, Final residual = 8.22176e-07, No Iterations 4
time step continuity errors : sum local = 2.69718e-12, global = -8.42483e-13, cumulative = -2.51366e-11
ExecutionTime = 6.64 s  ClockTime = 7 s

Time = 0.31

Courant Number mean: 0.00250868 max: 0.00323115
smoothSolver:  Solving for Ux, Initial residual = 0.00691319, Final residual = 1.09139e-07, No Iterations 1
smoothSolver:  Solving for Uy, Initial residual = 0.00691319, Final residual = 1.09251e-07, No Iterations 1
smoothSolver:  Solving for Uz, Initial residual = 0.00674673, Final residual = 7.73518e-08, No Iterations 1
DICPCG:  Solving for p, Initial residual = 0.000100504, Final residual = 3.28183e-06, No Iterations 71
time step continuity errors : sum local = 1.07664e-11, global = 1.30659e-13, cumulative = -2.50059e-11
DICPCG:  Solving for p, Initial residual = 8.99198e-06, Final residual = 8.17846e-07, No Iterations 4
time step continuity errors : sum local = 2.67284e-12, global = -8.35975e-13, cumulative = -2.58419e-11
ExecutionTime = 6.73 s  ClockTime = 7 s

Time = 0.315

Courant Number mean: 0.0025088 max: 0.00323955
smoothSolver:  Solving for Ux, Initial residual = 0.0067843, Final residual = 1.07108e-07, No Iterations 1
smoothSolver:  Solving for Uy, Initial residual = 0.0067843, Final residual = 1.07217e-07, No Iterations 1
smoothSolver:  Solving for Uz, Initial residual = 0.00661981, Final residual = 7.58667e-08, No Iterations 1
DICPCG:  Solving for p, Initial residual = 0.00010078, Final residual = 3.2726e-06, No Iterations 71
time step continuity errors : sum local = 1.06956e-11, global = 1.31663e-13, cumulative = -2.57102e-11
DICPCG:  Solving for p, Initial residual = 8.95541e-06, Final residual = 8.13604e-07, No Iterations 4
time step continuity errors : sum local = 2.64898e-12, global = -8.2954e-13, cumulative = -2.65398e-11
ExecutionTime = 6.82 s  ClockTime = 7 s

Time = 0.32

Courant Number mean: 0.00250892 max: 0.00324786
smoothSolver:  Solving for Ux, Initial residual = 0.00665959, Final residual = 1.05141e-07, No Iterations 1
smoothSolver:  Solving for Uy, Initial residual = 0.00665959, Final residual = 1.05247e-07, No Iterations 1
smoothSolver:  Solving for Uz, Initial residual = 0.00649694, Final residual = 7.44288e-08, No Iterations 1
DICPCG:  Solving for p, Initial residual = 0.000101022, Final residual = 3.25964e-06, No Iterations 71
time step continuity errors : sum local = 1.06131e-11, global = 1.33214e-13, cumulative = -2.64065e-11
DICPCG:  Solving for p, Initial residual = 8.91509e-06, Final residual = 8.09307e-07, No Iterations 4
time step continuity errors : sum local = 2.62512e-12, global = -8.23143e-13, cumulative = -2.72297e-11
ExecutionTime = 6.91 s  ClockTime = 7 s

Time = 0.325

Courant Number mean: 0.00250904 max: 0.00325608
smoothSolver:  Solving for Ux, Initial residual = 0.00653885, Final residual = 1.03237e-07, No Iterations 1
smoothSolver:  Solving for Uy, Initial residual = 0.00653885, Final residual = 1.0334e-07, No Iterations 1
smoothSolver:  Solving for Uz, Initial residual = 0.00637795, Final residual = 7.3036e-08, No Iterations 1
DICPCG:  Solving for p, Initial residual = 0.000101252, Final residual = 3.2451e-06, No Iterations 71
time step continuity errors : sum local = 1.05262e-11, global = 1.35624e-13, cumulative = -2.70941e-11
DICPCG:  Solving for p, Initial residual = 8.87553e-06, Final residual = 8.05844e-07, No Iterations 4
time step continuity errors : sum local = 2.60413e-12, global = -8.16714e-13, cumulative = -2.79108e-11
ExecutionTime = 7 s  ClockTime = 7 s

Time = 0.33

Courant Number mean: 0.00250916 max: 0.00326422
smoothSolver:  Solving for Ux, Initial residual = 0.0064219, Final residual = 1.01391e-07, No Iterations 1
smoothSolver:  Solving for Uy, Initial residual = 0.0064219, Final residual = 1.01492e-07, No Iterations 1
smoothSolver:  Solving for Uz, Initial residual = 0.00626279, Final residual = 7.16865e-08, No Iterations 1
DICPCG:  Solving for p, Initial residual = 0.000101514, Final residual = 3.22893e-06, No Iterations 71
time step continuity errors : sum local = 1.04347e-11, global = 1.38546e-13, cumulative = -2.77722e-11
DICPCG:  Solving for p, Initial residual = 8.83243e-06, Final residual = 8.01738e-07, No Iterations 4
time step continuity errors : sum local = 2.58123e-12, global = -8.10259e-13, cumulative = -2.85825e-11
ExecutionTime = 7.09 s  ClockTime = 7 s

Time = 0.335

Courant Number mean: 0.00250927 max: 0.00327226
smoothSolver:  Solving for Ux, Initial residual = 0.00630858, Final residual = 9.96027e-08, No Iterations 1
smoothSolver:  Solving for Uy, Initial residual = 0.00630858, Final residual = 9.97001e-08, No Iterations 1
smoothSolver:  Solving for Uz, Initial residual = 0.00615402, Final residual = 7.03783e-08, No Iterations 1
DICPCG:  Solving for p, Initial residual = 0.000101747, Final residual = 3.21528e-06, No Iterations 71
time step continuity errors : sum local = 1.03519e-11, global = 1.42406e-13, cumulative = -2.84401e-11
DICPCG:  Solving for p, Initial residual = 8.79391e-06, Final residual = 7.98766e-07, No Iterations 4
time step continuity errors : sum local = 2.56214e-12, global = -8.03699e-13, cumulative = -2.92438e-11
ExecutionTime = 7.18 s  ClockTime = 7 s

Time = 0.34

Courant Number mean: 0.00250939 max: 0.00328022
smoothSolver:  Solving for Ux, Initial residual = 0.00619871, Final residual = 9.7868e-08, No Iterations 1
smoothSolver:  Solving for Uy, Initial residual = 0.00619871, Final residual = 9.79627e-08, No Iterations 1
smoothSolver:  Solving for Uz, Initial residual = 0.00604858, Final residual = 6.91095e-08, No Iterations 1
DICPCG:  Solving for p, Initial residual = 0.00010195, Final residual = 3.202e-06, No Iterations 71
time step continuity errors : sum local = 1.0271e-11, global = 1.46682e-13, cumulative = -2.90971e-11
DICPCG:  Solving for p, Initial residual = 8.75478e-06, Final residual = 7.95657e-07, No Iterations 4
time step continuity errors : sum local = 2.54275e-12, global = -7.9707e-13, cumulative = -2.98942e-11
ExecutionTime = 7.27 s  ClockTime = 7 s

Time = 0.345

Courant Number mean: 0.00250951 max: 0.0032881
smoothSolver:  Solving for Ux, Initial residual = 0.00609216, Final residual = 9.61849e-08, No Iterations 1
smoothSolver:  Solving for Uy, Initial residual = 0.00609216, Final residual = 9.62771e-08, No Iterations 1
smoothSolver:  Solving for Uz, Initial residual = 0.00594631, Final residual = 6.78783e-08, No Iterations 1
DICPCG:  Solving for p, Initial residual = 0.000102125, Final residual = 3.1922e-06, No Iterations 71
time step continuity errors : sum local = 1.02017e-11, global = 1.51288e-13, cumulative = -2.97429e-11
DICPCG:  Solving for p, Initial residual = 8.71861e-06, Final residual = 7.92713e-07, No Iterations 4
time step continuity errors : sum local = 2.52403e-12, global = -7.9036e-13, cumulative = -3.05332e-11
ExecutionTime = 7.35 s  ClockTime = 8 s

Time = 0.35

Courant Number mean: 0.00250962 max: 0.00329589
smoothSolver:  Solving for Ux, Initial residual = 0.00598876, Final residual = 9.45513e-08, No Iterations 1
smoothSolver:  Solving for Uy, Initial residual = 0.00598876, Final residual = 9.46409e-08, No Iterations 1
smoothSolver:  Solving for Uz, Initial residual = 0.005847, Final residual = 6.66829e-08, No Iterations 1
DICPCG:  Solving for p, Initial residual = 0.000102272, Final residual = 3.18609e-06, No Iterations 71
time step continuity errors : sum local = 1.01448e-11, global = 1.55994e-13, cumulative = -3.03773e-11
DICPCG:  Solving for p, Initial residual = 8.68573e-06, Final residual = 7.89945e-07, No Iterations 4
time step continuity errors : sum local = 2.50601e-12, global = -7.83591e-13, cumulative = -3.11608e-11
ExecutionTime = 7.44 s  ClockTime = 8 s

Time = 0.355

Courant Number mean: 0.00250974 max: 0.00330359
smoothSolver:  Solving for Ux, Initial residual = 0.0058884, Final residual = 9.29649e-08, No Iterations 1
smoothSolver:  Solving for Uy, Initial residual = 0.0058884, Final residual = 9.30521e-08, No Iterations 1
smoothSolver:  Solving for Uz, Initial residual = 0.00575053, Final residual = 6.55221e-08, No Iterations 1
DICPCG:  Solving for p, Initial residual = 0.000102393, Final residual = 3.18454e-06, No Iterations 71
time step continuity errors : sum local = 1.01028e-11, global = 1.60556e-13, cumulative = -3.10003e-11
DICPCG:  Solving for p, Initial residual = 8.65688e-06, Final residual = 7.87314e-07, No Iterations 4
time step continuity errors : sum local = 2.48856e-12, global = -7.76792e-13, cumulative = -3.17771e-11
ExecutionTime = 7.53 s  ClockTime = 8 s

Time = 0.36

Courant Number mean: 0.00250985 max: 0.00331122
smoothSolver:  Solving for Ux, Initial residual = 0.00579094, Final residual = 9.14239e-08, No Iterations 1
smoothSolver:  Solving for Uy, Initial residual = 0.00579094, Final residual = 9.15087e-08, No Iterations 1
smoothSolver:  Solving for Uz, Initial residual = 0.00565679, Final residual = 6.43942e-08, No Iterations 1
DICPCG:  Solving for p, Initial residual = 0.000102488, Final residual = 3.18776e-06, No Iterations 71
time step continuity errors : sum local = 1.00761e-11, global = 1.6474e-13, cumulative = -3.16123e-11
DICPCG:  Solving for p, Initial residual = 8.63153e-06, Final residual = 7.8474e-07, No Iterations 4
time step continuity errors : sum local = 2.47141e-12, global = -7.70003e-13, cumulative = -3.23823e-11
ExecutionTime = 7.62 s  ClockTime = 8 s

Time = 0.365

Courant Number mean: 0.00250996 max: 0.00331876
smoothSolver:  Solving for Ux, Initial residual = 0.00569626, Final residual = 8.99262e-08, No Iterations 1
smoothSolver:  Solving for Uy, Initial residual = 0.00569626, Final residual = 9.00089e-08, No Iterations 1
smoothSolver:  Solving for Uz, Initial residual = 0.00556571, Final residual = 6.3298e-08, No Iterations 1
DICPCG:  Solving for p, Initial residual = 0.000102564, Final residual = 3.19532e-06, No Iterations 71
time step continuity errors : sum local = 1.00633e-11, global = 1.68354e-13, cumulative = -3.2214e-11
DICPCG:  Solving for p, Initial residual = 8.6095e-06, Final residual = 7.82185e-07, No Iterations 4
time step continuity errors : sum local = 2.45445e-12, global = -7.63269e-13, cumulative = -3.29773e-11
ExecutionTime = 7.71 s  ClockTime = 8 s

Time = 0.37

Courant Number mean: 0.00251008 max: 0.00332622
smoothSolver:  Solving for Ux, Initial residual = 0.00560424, Final residual = 8.84703e-08, No Iterations 1
smoothSolver:  Solving for Uy, Initial residual = 0.00560424, Final residual = 8.85508e-08, No Iterations 1
smoothSolver:  Solving for Uz, Initial residual = 0.00547717, Final residual = 6.22323e-08, No Iterations 1
DICPCG:  Solving for p, Initial residual = 0.000102618, Final residual = 3.20617e-06, No Iterations 71
time step continuity errors : sum local = 1.00609e-11, global = 1.71273e-13, cumulative = -3.2806e-11
DICPCG:  Solving for p, Initial residual = 8.58996e-06, Final residual = 7.79547e-07, No Iterations 4
time step continuity errors : sum local = 2.43736e-12, global = -7.56633e-13, cumulative = -3.35626e-11
ExecutionTime = 7.8 s  ClockTime = 8 s

Time = 0.375

Courant Number mean: 0.00251019 max: 0.0033336
smoothSolver:  Solving for Ux, Initial residual = 0.00551479, Final residual = 8.70544e-08, No Iterations 1
smoothSolver:  Solving for Uy, Initial residual = 0.00551479, Final residual = 8.71327e-08, No Iterations 1
smoothSolver:  Solving for Uz, Initial residual = 0.00539107, Final residual = 6.11958e-08, No Iterations 1
DICPCG:  Solving for p, Initial residual = 0.000102655, Final residual = 3.21869e-06, No Iterations 71
time step continuity errors : sum local = 1.00638e-11, global = 1.73421e-13, cumulative = -3.33892e-11
DICPCG:  Solving for p, Initial residual = 8.57216e-06, Final residual = 7.76797e-07, No Iterations 4
time step continuity errors : sum local = 2.42006e-12, global = -7.50135e-13, cumulative = -3.41393e-11
ExecutionTime = 7.89 s  ClockTime = 8 s

Time = 0.38

Courant Number mean: 0.0025103 max: 0.00334091
smoothSolver:  Solving for Ux, Initial residual = 0.00542779, Final residual = 8.56769e-08, No Iterations 1
smoothSolver:  Solving for Uy, Initial residual = 0.00542779, Final residual = 8.57532e-08, No Iterations 1
smoothSolver:  Solving for Uz, Initial residual = 0.00530729, Final residual = 6.01873e-08, No Iterations 1
DICPCG:  Solving for p, Initial residual = 0.000102671, Final residual = 3.23145e-06, No Iterations 71
time step continuity errors : sum local = 1.00675e-11, global = 1.74813e-13, cumulative = -3.39645e-11
DICPCG:  Solving for p, Initial residual = 8.55492e-06, Final residual = 7.73856e-07, No Iterations 4
time step continuity errors : sum local = 2.40229e-12, global = -7.43806e-13, cumulative = -3.47083e-11
ExecutionTime = 7.98 s  ClockTime = 8 s

Time = 0.385

Courant Number mean: 0.00251041 max: 0.00334813
smoothSolver:  Solving for Ux, Initial residual = 0.00534315, Final residual = 8.43362e-08, No Iterations 1
smoothSolver:  Solving for Uy, Initial residual = 0.00534315, Final residual = 8.44106e-08, No Iterations 1
smoothSolver:  Solving for Uz, Initial residual = 0.00522574, Final residual = 5.92058e-08, No Iterations 1
DICPCG:  Solving for p, Initial residual = 0.000102666, Final residual = 3.24338e-06, No Iterations 71
time step continuity errors : sum local = 1.00686e-11, global = 1.75538e-13, cumulative = -3.45328e-11
DICPCG:  Solving for p, Initial residual = 8.53723e-06, Final residual = 7.70729e-07, No Iterations 4
time step continuity errors : sum local = 2.38408e-12, global = -7.37662e-13, cumulative = -3.52705e-11
ExecutionTime = 8.07 s  ClockTime = 8 s

Time = 0.39

Courant Number mean: 0.00251052 max: 0.00335528
smoothSolver:  Solving for Ux, Initial residual = 0.00526078, Final residual = 8.30311e-08, No Iterations 1
smoothSolver:  Solving for Uy, Initial residual = 0.00526078, Final residual = 8.31036e-08, No Iterations 1
smoothSolver:  Solving for Uz, Initial residual = 0.00514632, Final residual = 5.82611e-08, No Iterations 1
DICPCG:  Solving for p, Initial residual = 0.000102644, Final residual = 3.25304e-06, No Iterations 71
time step continuity errors : sum local = 1.00627e-11, global = 1.75752e-13, cumulative = -3.50947e-11
DICPCG:  Solving for p, Initial residual = 8.51768e-06, Final residual = 7.67399e-07, No Iterations 4
time step continuity errors : sum local = 2.36537e-12, global = -7.31704e-13, cumulative = -3.58264e-11
ExecutionTime = 8.16 s  ClockTime = 8 s

Time = 0.395

Courant Number mean: 0.00251064 max: 0.00336235
smoothSolver:  Solving for Ux, Initial residual = 0.00518059, Final residual = 8.17601e-08, No Iterations 1
smoothSolver:  Solving for Uy, Initial residual = 0.00518059, Final residual = 8.18307e-08, No Iterations 1
smoothSolver:  Solving for Uz, Initial residual = 0.00506896, Final residual = 5.73444e-08, No Iterations 1
DICPCG:  Solving for p, Initial residual = 0.000102603, Final residual = 3.25965e-06, No Iterations 71
time step continuity errors : sum local = 1.00474e-11, global = 1.75631e-13, cumulative = -3.56508e-11
DICPCG:  Solving for p, Initial residual = 8.49592e-06, Final residual = 7.63942e-07, No Iterations 4
time step continuity errors : sum local = 2.34641e-12, global = -7.25922e-13, cumulative = -3.63767e-11
ExecutionTime = 8.24 s  ClockTime = 8 s

Time = 0.4

Courant Number mean: 0.00251075 max: 0.00336935
smoothSolver:  Solving for Ux, Initial residual = 0.0051025, Final residual = 8.05219e-08, No Iterations 1
smoothSolver:  Solving for Uy, Initial residual = 0.0051025, Final residual = 8.05908e-08, No Iterations 1
smoothSolver:  Solving for Uz, Initial residual = 0.00499358, Final residual = 5.64515e-08, No Iterations 1
DICPCG:  Solving for p, Initial residual = 0.000102544, Final residual = 3.26254e-06, No Iterations 71
time step continuity errors : sum local = 1.00209e-11, global = 1.75378e-13, cumulative = -3.62013e-11
DICPCG:  Solving for p, Initial residual = 8.4714e-06, Final residual = 7.6036e-07, No Iterations 4
time step continuity errors : sum local = 2.3272e-12, global = -7.20295e-13, cumulative = -3.69216e-11
ExecutionTime = 8.41 s  ClockTime = 9 s

Time = 0.405

Courant Number mean: 0.00251085 max: 0.00337756
smoothSolver:  Solving for Ux, Initial residual = 0.00502643, Final residual = 7.93154e-08, No Iterations 1
smoothSolver:  Solving for Uy, Initial residual = 0.00502643, Final residual = 7.93825e-08, No Iterations 1
smoothSolver:  Solving for Uz, Initial residual = 0.00492161, Final residual = 5.55813e-08, No Iterations 1
DICPCG:  Solving for p, Initial residual = 0.000102467, Final residual = 3.26162e-06, No Iterations 71
time step continuity errors : sum local = 9.98285e-12, global = 1.75177e-13, cumulative = -3.67464e-11
DICPCG:  Solving for p, Initial residual = 8.44408e-06, Final residual = 7.56734e-07, No Iterations 4
time step continuity errors : sum local = 2.308e-12, global = -7.1479e-13, cumulative = -3.74612e-11
ExecutionTime = 8.51 s  ClockTime = 9 s

Time = 0.41

Courant Number mean: 0.00251096 max: 0.00338605
smoothSolver:  Solving for Ux, Initial residual = 0.0049523, Final residual = 7.81393e-08, No Iterations 1
smoothSolver:  Solving for Uy, Initial residual = 0.0049523, Final residual = 7.82047e-08, No Iterations 1
smoothSolver:  Solving for Uz, Initial residual = 0.00485212, Final residual = 5.47397e-08, No Iterations 1
DICPCG:  Solving for p, Initial residual = 0.000102373, Final residual = 3.25741e-06, No Iterations 71
time step continuity errors : sum local = 9.93506e-12, global = 1.75198e-13, cumulative = -3.7286e-11
DICPCG:  Solving for p, Initial residual = 8.41416e-06, Final residual = 7.53103e-07, No Iterations 4
time step continuity errors : sum local = 2.28892e-12, global = -7.09374e-13, cumulative = -3.79954e-11
ExecutionTime = 8.59 s  ClockTime = 9 s

Time = 0.415

Courant Number mean: 0.00251107 max: 0.00339448
smoothSolver:  Solving for Ux, Initial residual = 0.00488005, Final residual = 7.69926e-08, No Iterations 1
smoothSolver:  Solving for Uy, Initial residual = 0.00488005, Final residual = 7.70564e-08, No Iterations 1
smoothSolver:  Solving for Uz, Initial residual = 0.00478437, Final residual = 5.39254e-08, No Iterations 1
DICPCG:  Solving for p, Initial residual = 0.000102263, Final residual = 3.25049e-06, No Iterations 71
time step continuity errors : sum local = 9.87941e-12, global = 1.75562e-13, cumulative = -3.78198e-11
DICPCG:  Solving for p, Initial residual = 8.38268e-06, Final residual = 7.49549e-07, No Iterations 4
time step continuity errors : sum local = 2.27021e-12, global = -7.04012e-13, cumulative = -3.85239e-11
ExecutionTime = 8.68 s  ClockTime = 9 s

Time = 0.42

Courant Number mean: 0.00251118 max: 0.00340286
smoothSolver:  Solving for Ux, Initial residual = 0.0048096, Final residual = 7.58741e-08, No Iterations 1
smoothSolver:  Solving for Uy, Initial residual = 0.0048096, Final residual = 7.59364e-08, No Iterations 1
smoothSolver:  Solving for Uz, Initial residual = 0.00471829, Final residual = 5.31313e-08, No Iterations 1
DICPCG:  Solving for p, Initial residual = 0.000102139, Final residual = 3.24203e-06, No Iterations 71
time step continuity errors : sum local = 9.81948e-12, global = 1.76357e-13, cumulative = -3.83475e-11
DICPCG:  Solving for p, Initial residual = 8.35044e-06, Final residual = 7.46087e-07, No Iterations 4
time step continuity errors : sum local = 2.25191e-12, global = -6.98671e-13, cumulative = -3.90462e-11
ExecutionTime = 8.77 s  ClockTime = 9 s

Time = 0.425

Courant Number mean: 0.00251129 max: 0.00341118
smoothSolver:  Solving for Ux, Initial residual = 0.00474089, Final residual = 7.4783e-08, No Iterations 1
smoothSolver:  Solving for Uy, Initial residual = 0.00474089, Final residual = 7.48437e-08, No Iterations 1
smoothSolver:  Solving for Uz, Initial residual = 0.0046538, Final residual = 5.23631e-08, No Iterations 1
DICPCG:  Solving for p, Initial residual = 0.000102001, Final residual = 3.2331e-06, No Iterations 71
time step continuity errors : sum local = 9.75854e-12, global = 1.77617e-13, cumulative = -3.88685e-11
DICPCG:  Solving for p, Initial residual = 8.3183e-06, Final residual = 7.42783e-07, No Iterations 4
time step continuity errors : sum local = 2.23421e-12, global = -6.93323e-13, cumulative = -3.95619e-11
ExecutionTime = 8.86 s  ClockTime = 9 s

Time = 0.43

Courant Number mean: 0.00251139 max: 0.00341946
smoothSolver:  Solving for Ux, Initial residual = 0.00467387, Final residual = 7.37182e-08, No Iterations 1
smoothSolver:  Solving for Uy, Initial residual = 0.00467387, Final residual = 7.37774e-08, No Iterations 1
smoothSolver:  Solving for Uz, Initial residual = 0.00459083, Final residual = 5.16155e-08, No Iterations 1
DICPCG:  Solving for p, Initial residual = 0.000101849, Final residual = 3.22499e-06, No Iterations 71
time step continuity errors : sum local = 9.70056e-12, global = 1.79343e-13, cumulative = -3.93825e-11
DICPCG:  Solving for p, Initial residual = 8.28698e-06, Final residual = 7.39635e-07, No Iterations 4
time step continuity errors : sum local = 2.21711e-12, global = -6.87948e-13, cumulative = -4.00705e-11
ExecutionTime = 8.95 s  ClockTime = 9 s

Time = 0.435

Courant Number mean: 0.0025115 max: 0.00342767
smoothSolver:  Solving for Ux, Initial residual = 0.00460846, Final residual = 7.26789e-08, No Iterations 1
smoothSolver:  Solving for Uy, Initial residual = 0.00460846, Final residual = 7.27367e-08, No Iterations 1
smoothSolver:  Solving for Uz, Initial residual = 0.00452934, Final residual = 5.08858e-08, No Iterations 1
DICPCG:  Solving for p, Initial residual = 0.000101685, Final residual = 3.21869e-06, No Iterations 71
time step continuity errors : sum local = 9.64838e-12, global = 1.81491e-13, cumulative = -3.9889e-11
DICPCG:  Solving for p, Initial residual = 8.25733e-06, Final residual = 7.36687e-07, No Iterations 4
time step continuity errors : sum local = 2.20073e-12, global = -6.82531e-13, cumulative = -4.05715e-11
ExecutionTime = 9.04 s  ClockTime = 9 s

Time = 0.44

Courant Number mean: 0.00251161 max: 0.00343584
smoothSolver:  Solving for Ux, Initial residual = 0.00454462, Final residual = 7.16641e-08, No Iterations 1
smoothSolver:  Solving for Uy, Initial residual = 0.00454462, Final residual = 7.17205e-08, No Iterations 1
smoothSolver:  Solving for Uz, Initial residual = 0.00446931, Final residual = 5.01759e-08, No Iterations 1
DICPCG:  Solving for p, Initial residual = 0.000101507, Final residual = 3.21479e-06, No Iterations 71
time step continuity errors : sum local = 9.60376e-12, global = 1.83997e-13, cumulative = -4.03875e-11
DICPCG:  Solving for p, Initial residual = 8.22973e-06, Final residual = 7.33912e-07, No Iterations 4
time step continuity errors : sum local = 2.18498e-12, global = -6.77067e-13, cumulative = -4.10646e-11
ExecutionTime = 9.13 s  ClockTime = 9 s

Time = 0.445

Courant Number mean: 0.00251171 max: 0.00344395
smoothSolver:  Solving for Ux, Initial residual = 0.0044823, Final residual = 7.0673e-08, No Iterations 1
smoothSolver:  Solving for Uy, Initial residual = 0.0044823, Final residual = 7.07281e-08, No Iterations 1
smoothSolver:  Solving for Uz, Initial residual = 0.00441204, Final residual = 4.94826e-08, No Iterations 1
DICPCG:  Solving for p, Initial residual = 0.000101318, Final residual = 3.21428e-06, No Iterations 71
time step continuity errors : sum local = 9.56959e-12, global = 1.86784e-13, cumulative = -4.08778e-11
DICPCG:  Solving for p, Initial residual = 8.20456e-06, Final residual = 7.31314e-07, No Iterations 4
time step continuity errors : sum local = 2.16987e-12, global = -6.71553e-13, cumulative = -4.15494e-11
ExecutionTime = 9.22 s  ClockTime = 9 s

Time = 0.45

Courant Number mean: 0.00251182 max: 0.00345201
smoothSolver:  Solving for Ux, Initial residual = 0.00442143, Final residual = 6.97049e-08, No Iterations 1
smoothSolver:  Solving for Uy, Initial residual = 0.00442143, Final residual = 6.97586e-08, No Iterations 1
smoothSolver:  Solving for Uz, Initial residual = 0.00435657, Final residual = 4.88052e-08, No Iterations 1
DICPCG:  Solving for p, Initial residual = 0.000101119, Final residual = 3.2173e-06, No Iterations 71
time step continuity errors : sum local = 9.54613e-12, global = 1.89752e-13, cumulative = -4.13596e-11
DICPCG:  Solving for p, Initial residual = 8.18236e-06, Final residual = 7.2887e-07, No Iterations 4
time step continuity errors : sum local = 2.15533e-12, global = -6.65998e-13, cumulative = -4.20256e-11
ExecutionTime = 9.31 s  ClockTime = 9 s

Time = 0.455

Courant Number mean: 0.00251192 max: 0.00346002
smoothSolver:  Solving for Ux, Initial residual = 0.00436197, Final residual = 6.8759e-08, No Iterations 1
smoothSolver:  Solving for Uy, Initial residual = 0.00436197, Final residual = 6.88114e-08, No Iterations 1
smoothSolver:  Solving for Uz, Initial residual = 0.00430235, Final residual = 4.81431e-08, No Iterations 1
DICPCG:  Solving for p, Initial residual = 0.000100911, Final residual = 3.2238e-06, No Iterations 71
time step continuity errors : sum local = 9.53312e-12, global = 1.9279e-13, cumulative = -4.18328e-11
DICPCG:  Solving for p, Initial residual = 8.16318e-06, Final residual = 7.26573e-07, No Iterations 4
time step continuity errors : sum local = 2.14131e-12, global = -6.60412e-13, cumulative = -4.24932e-11
ExecutionTime = 9.4 s  ClockTime = 10 s

Time = 0.46

Courant Number mean: 0.00251202 max: 0.00346798
smoothSolver:  Solving for Ux, Initial residual = 0.00430388, Final residual = 6.78345e-08, No Iterations 1
smoothSolver:  Solving for Uy, Initial residual = 0.00430388, Final residual = 6.78857e-08, No Iterations 1
smoothSolver:  Solving for Uz, Initial residual = 0.00424936, Final residual = 4.74958e-08, No Iterations 1
DICPCG:  Solving for p, Initial residual = 0.000100694, Final residual = 3.2337e-06, No Iterations 71
time step continuity errors : sum local = 9.53026e-12, global = 1.95809e-13, cumulative = -4.22974e-11
DICPCG:  Solving for p, Initial residual = 8.14683e-06, Final residual = 7.24392e-07, No Iterations 4
time step continuity errors : sum local = 2.12774e-12, global = -6.5481e-13, cumulative = -4.29522e-11
ExecutionTime = 9.49 s  ClockTime = 10 s

Time = 0.465

Courant Number mean: 0.00251213 max: 0.00347588
smoothSolver:  Solving for Ux, Initial residual = 0.00424711, Final residual = 6.69308e-08, No Iterations 1
smoothSolver:  Solving for Uy, Initial residual = 0.00424711, Final residual = 6.69808e-08, No Iterations 1
smoothSolver:  Solving for Uz, Initial residual = 0.00419753, Final residual = 4.68629e-08, No Iterations 1
DICPCG:  Solving for p, Initial residual = 0.000100469, Final residual = 3.24642e-06, No Iterations 71
time step continuity errors : sum local = 9.53573e-12, global = 1.9872e-13, cumulative = -4.27535e-11
DICPCG:  Solving for p, Initial residual = 8.133e-06, Final residual = 7.22323e-07, No Iterations 4
time step continuity errors : sum local = 2.11459e-12, global = -6.49207e-13, cumulative = -4.34027e-11
ExecutionTime = 9.58 s  ClockTime = 10 s

Time = 0.47

Courant Number mean: 0.00251223 max: 0.00348374
smoothSolver:  Solving for Ux, Initial residual = 0.00419162, Final residual = 6.60471e-08, No Iterations 1
smoothSolver:  Solving for Uy, Initial residual = 0.00419162, Final residual = 6.6096e-08, No Iterations 1
smoothSolver:  Solving for Uz, Initial residual = 0.00414681, Final residual = 4.62438e-08, No Iterations 1
DICPCG:  Solving for p, Initial residual = 0.000100233, Final residual = 3.26183e-06, No Iterations 71
time step continuity errors : sum local = 9.54905e-12, global = 2.01459e-13, cumulative = -4.32013e-11
DICPCG:  Solving for p, Initial residual = 8.12146e-06, Final residual = 7.20346e-07, No Iterations 4
time step continuity errors : sum local = 2.1018e-12, global = -6.43619e-13, cumulative = -4.38449e-11
ExecutionTime = 9.67 s  ClockTime = 10 s

Time = 0.475

Courant Number mean: 0.00251233 max: 0.00349154
[...]
smoothSolver:  Solving for Uz, Initial residual = 7.94255e-05, Final residual = 6.9626e-10, No Iterations 1
DICPCG:  Solving for p, Initial residual = 6.74492e-06, Final residual = 8.08981e-07, No Iterations 69
time step continuity errors : sum local = 8.36901e-13, global = 2.31133e-14, cumulative = -1.71799e-10
DICPCG:  Solving for p, Initial residual = 9.7424e-07, Final residual = 9.7424e-07, No Iterations 0
time step continuity errors : sum local = 1.00776e-12, global = 1.46523e-14, cumulative = -1.71785e-10
ExecutionTime = 177.81 s  ClockTime = 178 s

Time = 9.89

Courant Number mean: 0.00256287 max: 0.00494463
smoothSolver:  Solving for Ux, Initial residual = 9.24343e-05, Final residual = 9.12607e-10, No Iterations 1
smoothSolver:  Solving for Uy, Initial residual = 9.24405e-05, Final residual = 9.13185e-10, No Iterations 1
smoothSolver:  Solving for Uz, Initial residual = 7.9365e-05, Final residual = 6.95694e-10, No Iterations 1
DICPCG:  Solving for p, Initial residual = 6.81183e-06, Final residual = 8.01821e-07, No Iterations 69
time step continuity errors : sum local = 8.29416e-13, global = 2.25848e-14, cumulative = -1.71762e-10
DICPCG:  Solving for p, Initial residual = 9.52035e-07, Final residual = 9.52035e-07, No Iterations 0
time step continuity errors : sum local = 9.84703e-13, global = 1.41121e-14, cumulative = -1.71748e-10
ExecutionTime = 177.91 s  ClockTime = 178 s

Time = 9.895

Courant Number mean: 0.00256288 max: 0.00494461
smoothSolver:  Solving for Ux, Initial residual = 9.23805e-05, Final residual = 9.11867e-10, No Iterations 1
smoothSolver:  Solving for Uy, Initial residual = 9.23869e-05, Final residual = 9.12444e-10, No Iterations 1
smoothSolver:  Solving for Uz, Initial residual = 7.93046e-05, Final residual = 6.95128e-10, No Iterations 1
DICPCG:  Solving for p, Initial residual = 6.87624e-06, Final residual = 8.14329e-07, No Iterations 69
time step continuity errors : sum local = 8.42275e-13, global = 2.33048e-14, cumulative = -1.71725e-10
DICPCG:  Solving for p, Initial residual = 9.87086e-07, Final residual = 9.87086e-07, No Iterations 0
time step continuity errors : sum local = 1.02086e-12, global = 1.48564e-14, cumulative = -1.7171e-10
ExecutionTime = 178.03 s  ClockTime = 179 s

Time = 9.9

Courant Number mean: 0.00256289 max: 0.0049446
smoothSolver:  Solving for Ux, Initial residual = 9.23261e-05, Final residual = 9.11128e-10, No Iterations 1
smoothSolver:  Solving for Uy, Initial residual = 9.23328e-05, Final residual = 9.11704e-10, No Iterations 1
smoothSolver:  Solving for Uz, Initial residual = 7.92443e-05, Final residual = 6.94563e-10, No Iterations 1
DICPCG:  Solving for p, Initial residual = 6.89063e-06, Final residual = 8.29463e-07, No Iterations 69
time step continuity errors : sum local = 8.57847e-13, global = 2.312e-14, cumulative = -1.71687e-10
DICPCG:  Solving for p, Initial residual = 9.92863e-07, Final residual = 9.92863e-07, No Iterations 0
time step continuity errors : sum local = 1.02674e-12, global = 1.4666e-14, cumulative = -1.71672e-10
ExecutionTime = 178.19 s  ClockTime = 179 s

Time = 9.905

Courant Number mean: 0.0025629 max: 0.00494458
smoothSolver:  Solving for Ux, Initial residual = 9.22722e-05, Final residual = 9.10389e-10, No Iterations 1
smoothSolver:  Solving for Uy, Initial residual = 9.2279e-05, Final residual = 9.10963e-10, No Iterations 1
smoothSolver:  Solving for Uz, Initial residual = 7.9184e-05, Final residual = 6.93998e-10, No Iterations 1
DICPCG:  Solving for p, Initial residual = 6.99293e-06, Final residual = 8.27341e-07, No Iterations 69
time step continuity errors : sum local = 8.55572e-13, global = 2.34282e-14, cumulative = -1.71648e-10
DICPCG:  Solving for p, Initial residual = 1.0031e-06, Final residual = 5.29671e-07, No Iterations 1
time step continuity errors : sum local = 5.47691e-13, global = 1.01579e-14, cumulative = -1.71638e-10
ExecutionTime = 178.27 s  ClockTime = 179 s

Time = 9.91

Courant Number mean: 0.00256291 max: 0.00494457
smoothSolver:  Solving for Ux, Initial residual = 9.22176e-05, Final residual = 9.09639e-10, No Iterations 1
smoothSolver:  Solving for Uy, Initial residual = 9.2225e-05, Final residual = 9.10223e-10, No Iterations 1
smoothSolver:  Solving for Uz, Initial residual = 7.91237e-05, Final residual = 6.93434e-10, No Iterations 1
DICPCG:  Solving for p, Initial residual = 6.73305e-06, Final residual = 8.15935e-07, No Iterations 69
time step continuity errors : sum local = 8.43697e-13, global = 2.28124e-14, cumulative = -1.71615e-10
DICPCG:  Solving for p, Initial residual = 9.8566e-07, Final residual = 9.8566e-07, No Iterations 0
time step continuity errors : sum local = 1.0191e-12, global = 1.44201e-14, cumulative = -1.71601e-10
ExecutionTime = 178.36 s  ClockTime = 179 s

Time = 9.915

Courant Number mean: 0.00256293 max: 0.00494455
smoothSolver:  Solving for Ux, Initial residual = 9.21618e-05, Final residual = 9.08899e-10, No Iterations 1
smoothSolver:  Solving for Uy, Initial residual = 9.2169e-05, Final residual = 9.09485e-10, No Iterations 1
smoothSolver:  Solving for Uz, Initial residual = 7.90635e-05, Final residual = 6.9287e-10, No Iterations 1
DICPCG:  Solving for p, Initial residual = 7.08449e-06, Final residual = 8.08765e-07, No Iterations 69
time step continuity errors : sum local = 8.36204e-13, global = 2.27436e-14, cumulative = -1.71578e-10
DICPCG:  Solving for p, Initial residual = 9.41667e-07, Final residual = 9.41667e-07, No Iterations 0
time step continuity errors : sum local = 9.73519e-13, global = 1.42937e-14, cumulative = -1.71564e-10
ExecutionTime = 178.44 s  ClockTime = 179 s

Time = 9.92

Courant Number mean: 0.00256294 max: 0.00494454
smoothSolver:  Solving for Ux, Initial residual = 9.21095e-05, Final residual = 9.08165e-10, No Iterations 1
smoothSolver:  Solving for Uy, Initial residual = 9.21163e-05, Final residual = 9.08746e-10, No Iterations 1
smoothSolver:  Solving for Uz, Initial residual = 7.90034e-05, Final residual = 6.92307e-10, No Iterations 1
DICPCG:  Solving for p, Initial residual = 6.92917e-06, Final residual = 8.2446e-07, No Iterations 69
time step continuity errors : sum local = 8.52352e-13, global = 2.3542e-14, cumulative = -1.7154e-10
DICPCG:  Solving for p, Initial residual = 9.93539e-07, Final residual = 9.93539e-07, No Iterations 0
time step continuity errors : sum local = 1.02705e-12, global = 1.51299e-14, cumulative = -1.71525e-10
ExecutionTime = 178.53 s  ClockTime = 179 s

Time = 9.925

Courant Number mean: 0.00256295 max: 0.00494452
smoothSolver:  Solving for Ux, Initial residual = 9.20548e-05, Final residual = 9.07428e-10, No Iterations 1
smoothSolver:  Solving for Uy, Initial residual = 9.20616e-05, Final residual = 9.08012e-10, No Iterations 1
smoothSolver:  Solving for Uz, Initial residual = 7.89434e-05, Final residual = 6.91745e-10, No Iterations 1
DICPCG:  Solving for p, Initial residual = 6.94358e-06, Final residual = 8.35984e-07, No Iterations 69
time step continuity errors : sum local = 8.64184e-13, global = 2.34566e-14, cumulative = -1.71502e-10
DICPCG:  Solving for p, Initial residual = 9.88827e-07, Final residual = 9.88827e-07, No Iterations 0
time step continuity errors : sum local = 1.02208e-12, global = 1.50392e-14, cumulative = -1.71487e-10
ExecutionTime = 178.61 s  ClockTime = 179 s

Time = 9.93

Courant Number mean: 0.00256296 max: 0.00494451
smoothSolver:  Solving for Ux, Initial residual = 9.20011e-05, Final residual = 9.06691e-10, No Iterations 1
smoothSolver:  Solving for Uy, Initial residual = 9.20082e-05, Final residual = 9.0728e-10, No Iterations 1
smoothSolver:  Solving for Uz, Initial residual = 7.88833e-05, Final residual = 6.91183e-10, No Iterations 1
DICPCG:  Solving for p, Initial residual = 7.00766e-06, Final residual = 8.36776e-07, No Iterations 69
time step continuity errors : sum local = 8.64922e-13, global = 2.37637e-14, cumulative = -1.71463e-10
DICPCG:  Solving for p, Initial residual = 1.01574e-06, Final residual = 5.3823e-07, No Iterations 1
time step continuity errors : sum local = 5.56279e-13, global = 1.04779e-14, cumulative = -1.71453e-10
ExecutionTime = 178.69 s  ClockTime = 179 s

Time = 9.935

Courant Number mean: 0.00256297 max: 0.00494449
smoothSolver:  Solving for Ux, Initial residual = 9.19464e-05, Final residual = 9.05951e-10, No Iterations 1
smoothSolver:  Solving for Uy, Initial residual = 9.19541e-05, Final residual = 9.06551e-10, No Iterations 1
smoothSolver:  Solving for Uz, Initial residual = 7.88234e-05, Final residual = 6.90622e-10, No Iterations 1
DICPCG:  Solving for p, Initial residual = 6.81872e-06, Final residual = 8.15035e-07, No Iterations 69
time step continuity errors : sum local = 8.42371e-13, global = 2.31972e-14, cumulative = -1.71429e-10
DICPCG:  Solving for p, Initial residual = 9.90084e-07, Final residual = 9.90084e-07, No Iterations 0
time step continuity errors : sum local = 1.02319e-12, global = 1.48421e-14, cumulative = -1.71415e-10
ExecutionTime = 178.78 s  ClockTime = 179 s

Time = 9.94

Courant Number mean: 0.00256298 max: 0.00494447
smoothSolver:  Solving for Ux, Initial residual = 9.1891e-05, Final residual = 9.05226e-10, No Iterations 1
smoothSolver:  Solving for Uy, Initial residual = 9.18989e-05, Final residual = 9.0583e-10, No Iterations 1
smoothSolver:  Solving for Uz, Initial residual = 7.87635e-05, Final residual = 6.90062e-10, No Iterations 1
DICPCG:  Solving for p, Initial residual = 7.26584e-06, Final residual = 8.26373e-07, No Iterations 69
time step continuity errors : sum local = 8.5401e-13, global = 2.35867e-14, cumulative = -1.71391e-10
DICPCG:  Solving for p, Initial residual = 9.74701e-07, Final residual = 9.74701e-07, No Iterations 0
time step continuity errors : sum local = 1.0072e-12, global = 1.51753e-14, cumulative = -1.71376e-10
ExecutionTime = 178.86 s  ClockTime = 179 s

Time = 9.945

Courant Number mean: 0.00256299 max: 0.00494446
smoothSolver:  Solving for Ux, Initial residual = 9.18394e-05, Final residual = 9.04522e-10, No Iterations 1
smoothSolver:  Solving for Uy, Initial residual = 9.18465e-05, Final residual = 9.05117e-10, No Iterations 1
smoothSolver:  Solving for Uz, Initial residual = 7.87037e-05, Final residual = 6.89503e-10, No Iterations 1
DICPCG:  Solving for p, Initial residual = 6.84118e-06, Final residual = 8.22476e-07, No Iterations 69
time step continuity errors : sum local = 8.49903e-13, global = 2.39628e-14, cumulative = -1.71352e-10
DICPCG:  Solving for p, Initial residual = 9.91117e-07, Final residual = 9.91117e-07, No Iterations 0
time step continuity errors : sum local = 1.02407e-12, global = 1.5582e-14, cumulative = -1.71336e-10
ExecutionTime = 178.94 s  ClockTime = 180 s

Time = 9.95

Courant Number mean: 0.002563 max: 0.00494444
smoothSolver:  Solving for Ux, Initial residual = 9.17842e-05, Final residual = 9.03783e-10, No Iterations 1
smoothSolver:  Solving for Uy, Initial residual = 9.17914e-05, Final residual = 9.04378e-10, No Iterations 1
smoothSolver:  Solving for Uz, Initial residual = 7.86439e-05, Final residual = 6.88944e-10, No Iterations 1
DICPCG:  Solving for p, Initial residual = 7.732e-06, Final residual = 9.14593e-07, No Iterations 69
time step continuity errors : sum local = 9.45003e-13, global = 2.56258e-14, cumulative = -1.71311e-10
DICPCG:  Solving for p, Initial residual = 1.1128e-06, Final residual = 5.5088e-07, No Iterations 1
time step continuity errors : sum local = 5.6914e-13, global = 1.22132e-14, cumulative = -1.71298e-10
ExecutionTime = 179.03 s  ClockTime = 180 s

Time = 9.955

Courant Number mean: 0.00256301 max: 0.00494443
smoothSolver:  Solving for Ux, Initial residual = 9.17266e-05, Final residual = 9.02982e-10, No Iterations 1
smoothSolver:  Solving for Uy, Initial residual = 9.17343e-05, Final residual = 9.03582e-10, No Iterations 1
smoothSolver:  Solving for Uz, Initial residual = 7.85842e-05, Final residual = 6.88386e-10, No Iterations 1
DICPCG:  Solving for p, Initial residual = 7.28678e-06, Final residual = 8.90119e-07, No Iterations 69
time step continuity errors : sum local = 9.19627e-13, global = 2.48885e-14, cumulative = -1.71274e-10
DICPCG:  Solving for p, Initial residual = 1.09697e-06, Final residual = 5.56241e-07, No Iterations 1
time step continuity errors : sum local = 5.74624e-13, global = 1.17129e-14, cumulative = -1.71262e-10
ExecutionTime = 179.11 s  ClockTime = 180 s

Time = 9.96

Courant Number mean: 0.00256302 max: 0.00494441
smoothSolver:  Solving for Ux, Initial residual = 9.16677e-05, Final residual = 9.02197e-10, No Iterations 1
smoothSolver:  Solving for Uy, Initial residual = 9.16758e-05, Final residual = 9.02801e-10, No Iterations 1
smoothSolver:  Solving for Uz, Initial residual = 7.85245e-05, Final residual = 6.87828e-10, No Iterations 1
DICPCG:  Solving for p, Initial residual = 6.52628e-06, Final residual = 8.06869e-07, No Iterations 69
time step continuity errors : sum local = 8.33538e-13, global = 2.33912e-14, cumulative = -1.71238e-10
DICPCG:  Solving for p, Initial residual = 9.62625e-07, Final residual = 9.62625e-07, No Iterations 0
time step continuity errors : sum local = 9.94346e-13, global = 1.50462e-14, cumulative = -1.71223e-10
ExecutionTime = 179.19 s  ClockTime = 180 s

Time = 9.965

Courant Number mean: 0.00256303 max: 0.0049444
smoothSolver:  Solving for Ux, Initial residual = 9.16131e-05, Final residual = 9.01477e-10, No Iterations 1
smoothSolver:  Solving for Uy, Initial residual = 9.16202e-05, Final residual = 9.02073e-10, No Iterations 1
smoothSolver:  Solving for Uz, Initial residual = 7.84649e-05, Final residual = 6.87272e-10, No Iterations 1
DICPCG:  Solving for p, Initial residual = 6.81088e-06, Final residual = 7.92578e-07, No Iterations 69
time step continuity errors : sum local = 8.18698e-13, global = 2.37892e-14, cumulative = -1.712e-10
DICPCG:  Solving for p, Initial residual = 9.15544e-07, Final residual = 9.15544e-07, No Iterations 0
time step continuity errors : sum local = 9.45624e-13, global = 1.54224e-14, cumulative = -1.71184e-10
ExecutionTime = 179.28 s  ClockTime = 180 s

Time = 9.97

Courant Number mean: 0.00256304 max: 0.00494438
smoothSolver:  Solving for Ux, Initial residual = 9.15593e-05, Final residual = 9.0075e-10, No Iterations 1
smoothSolver:  Solving for Uy, Initial residual = 9.1566e-05, Final residual = 9.01338e-10, No Iterations 1
smoothSolver:  Solving for Uz, Initial residual = 7.84053e-05, Final residual = 6.86716e-10, No Iterations 1
DICPCG:  Solving for p, Initial residual = 6.6498e-06, Final residual = 8.07733e-07, No Iterations 69
time step continuity errors : sum local = 8.34275e-13, global = 2.35802e-14, cumulative = -1.71161e-10
DICPCG:  Solving for p, Initial residual = 9.65322e-07, Final residual = 9.65322e-07, No Iterations 0
time step continuity errors : sum local = 9.96945e-13, global = 1.52321e-14, cumulative = -1.71145e-10
ExecutionTime = 179.36 s  ClockTime = 180 s

Time = 9.975

Courant Number mean: 0.00256305 max: 0.00494437
smoothSolver:  Solving for Ux, Initial residual = 9.15046e-05, Final residual = 9.00027e-10, No Iterations 1
smoothSolver:  Solving for Uy, Initial residual = 9.15113e-05, Final residual = 9.00615e-10, No Iterations 1
smoothSolver:  Solving for Uz, Initial residual = 7.83458e-05, Final residual = 6.8616e-10, No Iterations 1
DICPCG:  Solving for p, Initial residual = 6.75045e-06, Final residual = 8.13185e-07, No Iterations 69
time step continuity errors : sum local = 8.39827e-13, global = 2.39103e-14, cumulative = -1.71121e-10
DICPCG:  Solving for p, Initial residual = 9.58491e-07, Final residual = 9.58491e-07, No Iterations 0
time step continuity errors : sum local = 9.89797e-13, global = 1.55729e-14, cumulative = -1.71106e-10
ExecutionTime = 179.44 s  ClockTime = 180 s

Time = 9.98

Courant Number mean: 0.00256306 max: 0.00494435
smoothSolver:  Solving for Ux, Initial residual = 9.14503e-05, Final residual = 8.99304e-10, No Iterations 1
smoothSolver:  Solving for Uy, Initial residual = 9.14572e-05, Final residual = 8.99891e-10, No Iterations 1
smoothSolver:  Solving for Uz, Initial residual = 7.82864e-05, Final residual = 6.85606e-10, No Iterations 1
DICPCG:  Solving for p, Initial residual = 6.7936e-06, Final residual = 8.25848e-07, No Iterations 69
time step continuity errors : sum local = 8.52826e-13, global = 2.38744e-14, cumulative = -1.71082e-10
DICPCG:  Solving for p, Initial residual = 9.90421e-07, Final residual = 9.90421e-07, No Iterations 0
time step continuity errors : sum local = 1.02268e-12, global = 1.55404e-14, cumulative = -1.71066e-10
ExecutionTime = 179.53 s  ClockTime = 180 s

Time = 9.985

Courant Number mean: 0.00256307 max: 0.00494434
smoothSolver:  Solving for Ux, Initial residual = 9.13956e-05, Final residual = 8.98581e-10, No Iterations 1
smoothSolver:  Solving for Uy, Initial residual = 9.14026e-05, Final residual = 8.99168e-10, No Iterations 1
smoothSolver:  Solving for Uz, Initial residual = 7.8227e-05, Final residual = 6.85052e-10, No Iterations 1
DICPCG:  Solving for p, Initial residual = 6.89578e-06, Final residual = 8.35011e-07, No Iterations 69
time step continuity errors : sum local = 8.62208e-13, global = 2.43037e-14, cumulative = -1.71042e-10
DICPCG:  Solving for p, Initial residual = 9.93743e-07, Final residual = 9.93743e-07, No Iterations 0
time step continuity errors : sum local = 1.02601e-12, global = 1.59815e-14, cumulative = -1.71026e-10
ExecutionTime = 179.61 s  ClockTime = 180 s

Time = 9.99

Courant Number mean: 0.00256308 max: 0.00494432
smoothSolver:  Solving for Ux, Initial residual = 9.13412e-05, Final residual = 8.97862e-10, No Iterations 1
smoothSolver:  Solving for Uy, Initial residual = 9.13485e-05, Final residual = 8.98451e-10, No Iterations 1
smoothSolver:  Solving for Uz, Initial residual = 7.81677e-05, Final residual = 6.84498e-10, No Iterations 1
DICPCG:  Solving for p, Initial residual = 7.04748e-06, Final residual = 8.6431e-07, No Iterations 69
time step continuity errors : sum local = 8.92379e-13, global = 2.42439e-14, cumulative = -1.71002e-10
DICPCG:  Solving for p, Initial residual = 1.03033e-06, Final residual = 5.51567e-07, No Iterations 1
time step continuity errors : sum local = 5.69424e-13, global = 1.09744e-14, cumulative = -1.70991e-10
ExecutionTime = 179.69 s  ClockTime = 180 s

Time = 9.995

Courant Number mean: 0.00256309 max: 0.00494431
smoothSolver:  Solving for Ux, Initial residual = 9.12866e-05, Final residual = 8.97138e-10, No Iterations 1
smoothSolver:  Solving for Uy, Initial residual = 9.12947e-05, Final residual = 8.97736e-10, No Iterations 1
smoothSolver:  Solving for Uz, Initial residual = 7.81084e-05, Final residual = 6.83945e-10, No Iterations 1
DICPCG:  Solving for p, Initial residual = 6.7829e-06, Final residual = 8.07409e-07, No Iterations 69
time step continuity errors : sum local = 8.33552e-13, global = 2.39193e-14, cumulative = -1.70967e-10
DICPCG:  Solving for p, Initial residual = 9.73853e-07, Final residual = 9.73853e-07, No Iterations 0
time step continuity errors : sum local = 1.00529e-12, global = 1.56549e-14, cumulative = -1.70951e-10
ExecutionTime = 179.78 s  ClockTime = 180 s

Time = 10

Courant Number mean: 0.0025631 max: 0.00494429
smoothSolver:  Solving for Ux, Initial residual = 9.12305e-05, Final residual = 8.96423e-10, No Iterations 1
smoothSolver:  Solving for Uy, Initial residual = 9.12386e-05, Final residual = 8.97024e-10, No Iterations 1
smoothSolver:  Solving for Uz, Initial residual = 7.80492e-05, Final residual = 6.83393e-10, No Iterations 1
DICPCG:  Solving for p, Initial residual = 7.42537e-06, Final residual = 8.62882e-07, No Iterations 69
time step continuity errors : sum local = 8.90738e-13, global = 2.45156e-14, cumulative = -1.70927e-10
DICPCG:  Solving for p, Initial residual = 9.98549e-07, Final residual = 9.98549e-07, No Iterations 0
time step continuity errors : sum local = 1.03068e-12, global = 1.61907e-14, cumulative = -1.70911e-10
ExecutionTime = 179.94 s  ClockTime = 181 s

End

