/*---------------------------------------------------------------------------*\
| =========                 |                                                 |
| \\      /  F ield         | OpenFOAM: The Open Source CFD Toolbox           |
|  \\    /   O peration     | Version:  2412                                  |
|   \\  /    A nd           | Website:  www.openfoam.com                      |
|    \\/     M anipulation  |                                                 |
\*---------------------------------------------------------------------------*/
Build  : _45e7c4a0-20241224 OPENFOAM=2412 version=2412
Arch   : "LSB;label=32;scalar=64"
Exec   : fireFoam -parallel
Date   : Feb 24 2025
Time   : 23:11:46
Host   : enzo-palma-X470GTQ
PID    : 10497
I/O    : uncollated
Case   : /home/enzo-palma/Curso_CFD/HM2/Case_1/simulation
nProcs : 4
Hosts  :
(
    (enzo-palma-X470GTQ 4)
)
Pstream initialized with:
    floatTransfer      : false
    maxCommsSize       : 0
    nProcsSimpleSum    : 0
    nonBlockingExchange: 0 (tuning: 0)
    exchange algorithm : 0
    commsType          : nonBlocking
    polling iterations : 0
trapFpe: Floating point exception trapping enabled (FOAM_SIGFPE).
fileModificationChecking : Monitoring run-time modified files using timeStampMaster (fileModificationSkew 5, maxFileModificationPolls 20)
allowSystemOperations : Allowing user-supplied system call operations

// * * * * * * * * * * * * * * * * * * * * * * * * * * * * * * * * * * * * * //
Create time

Create mesh for time = 0


PIMPLE: Operating solver in PISO mode

Reading thermophysical properties

Selecting thermodynamics package 
{
    type            hePsiThermo;
    mixture         singleStepReactingMixture;
    transport       sutherland;
    thermo          janaf;
    energy          sensibleEnthalpy;
    equationOfState perfectGas;
    specie          specie;
}

Selecting chemistryReader foamChemistryReader
    elements not defined in "/home/enzo-palma/Curso_CFD/HM2/Case_1/simulation/constant/reactions"
Fuel heat of combustion :3.04063e+08
stoichiometric air-fuel ratio :6.60843
stoichiometric oxygen-fuel ratio :3.98918
Maximum products mass concentrations:
    H2O: 0.414847
    CO2: 0.101344
    N2: 0.483809
Creating component thermo properties:
    multi-component carrier - 5 species
    no liquid components
    no solid components
Creating field rho


Reading field U

Reading/calculating face flux field phi

No MRF models present

Creating turbulence model

Selecting turbulence model type LES
Selecting LES turbulence model kEqn
Selecting LES delta type cubeRootVol
--> FOAM Warning : 
    From void Foam::LESModels::cubeRootVolDelta::calcDelta()
    in file LES/LESdeltas/cubeRootVolDelta/cubeRootVolDelta.C at line 58
    Case is 2D, LES is not strictly applicable

kEqnCoeffs
{
    ck              0.07;
    Ck              0.094;
}

Creating combustion model

Selecting combustion model EDM
Combustion mode: explicit

Reading g

Reading hRef
Calculating field g.h


Reading pRef
GAMG:  Solving for ph_rgh, Initial residual = 1, Final residual = 0.0365236, No Iterations 2
Hydrostatic pressure variation 0.30317
GAMG:  Solving for ph_rgh, Initial residual = 0.0181978, Final residual = 0.00076947, No Iterations 2
Hydrostatic pressure variation 0.308578
GAMG:  Solving for ph_rgh, Initial residual = 0.000788689, Final residual = 3.39244e-05, No Iterations 3
Hydrostatic pressure variation 0.307408
GAMG:  Solving for ph_rgh, Initial residual = 3.45175e-05, Final residual = 2.8085e-06, No Iterations 3
Hydrostatic pressure variation 0.307269
GAMG:  Solving for ph_rgh, Initial residual = 2.84826e-06, Final residual = 6.13912e-07, No Iterations 2
Hydrostatic pressure variation 0.307258
Creating field dpdt

Creating field kinetic energy K


Constructing reacting cloud
Cloud source terms will be reset
Constructing particle injection models
Selecting injection model none

Constructing surface film model
Selecting surfaceFilmModel none
Creating pyrolysis model
Selecting pyrolysisModel none
Selecting radiationModel fvDOM
Selecting absorptionEmissionModel greyMeanAbsorptionEmission
Selecting scatterModel none
Selecting sootModel none
fvDOM : Allocated 8 rays with average orientation:
	I0 : dAve : 	(0.460076 1.11072 5.88954e-33) : omega : 	1.5708 : d : 	(0.382683 0.92388 6.12323e-17)
	I1 : dAve : 	(1.11072 0.460076 5.88954e-33) : omega : 	1.5708 : d : 	(0.92388 0.382683 6.12323e-17)
	I2 : dAve : 	(1.11072 -0.460076 5.88954e-33) : omega : 	1.5708 : d : 	(0.92388 -0.382683 6.12323e-17)
	I3 : dAve : 	(0.460076 -1.11072 5.88954e-33) : omega : 	1.5708 : d : 	(0.382683 -0.92388 6.12323e-17)
	I4 : dAve : 	(-0.460076 -1.11072 5.88954e-33) : omega : 	1.5708 : d : 	(-0.382683 -0.92388 6.12323e-17)
	I5 : dAve : 	(-1.11072 -0.460076 5.88954e-33) : omega : 	1.5708 : d : 	(-0.92388 -0.382683 6.12323e-17)
	I6 : dAve : 	(-1.11072 0.460076 5.88954e-33) : omega : 	1.5708 : d : 	(-0.92388 0.382683 6.12323e-17)
	I7 : dAve : 	(-0.460076 1.11072 5.88954e-33) : omega : 	1.5708 : d : 	(-0.382683 0.92388 6.12323e-17)
Total omega : 12.5664

No finite volume options present
Courant Number mean: 0 max: 0

Starting time loop

Courant Number mean: 0 max: 0
deltaT = 0.00144928
Time = 0.00144928

diagonal:  Solving for rho, Initial residual = 0, Final residual = 0, No Iterations 0
PIMPLE: iteration 1
DILUPBiCGStab:  Solving for Ux, Initial residual = 1, Final residual = 2.24696e-07, No Iterations 1
DILUPBiCGStab:  Solving for Uy, Initial residual = 1, Final residual = 1.67135e-07, No Iterations 1
DILUPBiCGStab:  Solving for O2, Initial residual = 0.0168635, Final residual = 2.77957e-09, No Iterations 1
DILUPBiCGStab:  Solving for H2O, Initial residual = 0, Final residual = 0, No Iterations 0
DILUPBiCGStab:  Solving for CH4, Initial residual = 0, Final residual = 0, No Iterations 0
DILUPBiCGStab:  Solving for CO2, Initial residual = 0, Final residual = 0, No Iterations 0
Radiation solver iter: 0
Selecting boundary radiation Model: lookup
Selecting boundary radiation Model: lookup
Selecting boundary radiation Model: lookup
Selecting boundary radiation Model: lookup
Selecting boundary radiation Model: lookup
Selecting boundary radiation Model: lookup
GAMG:  Solving for ILambda_0_0, Initial residual = 1, Final residual = 2.47144e-16, No Iterations 1
GAMG:  Solving for ILambda_1_0, Initial residual = 1, Final residual = 2.28474e-16, No Iterations 1
GAMG:  Solving for ILambda_2_0, Initial residual = 1, Final residual = 2.35223e-16, No Iterations 1
GAMG:  Solving for ILambda_3_0, Initial residual = 1, Final residual = 2.57199e-16, No Iterations 1
GAMG:  Solving for ILambda_4_0, Initial residual = 1, Final residual = 2.52115e-16, No Iterations 1
GAMG:  Solving for ILambda_5_0, Initial residual = 1, Final residual = 2.27769e-16, No Iterations 1
GAMG:  Solving for ILambda_6_0, Initial residual = 1, Final residual = 2.37797e-16, No Iterations 1
GAMG:  Solving for ILambda_7_0, Initial residual = 1, Final residual = 2.54501e-16, No Iterations 1
DILUPBiCGStab:  Solving for h, Initial residual = 0.00572642, Final residual = 1.00743e-09, No Iterations 1
min/max(T) = 300, 300
GAMG:  Solving for p_rgh, Initial residual = 7.47488e-07, Final residual = 7.47488e-07, No Iterations 0
diagonal:  Solving for rho, Initial residual = 0, Final residual = 0, No Iterations 0
time step continuity errors : sum local = 8.60679e-13, global = 8.59325e-13, cumulative = 8.59325e-13
GAMG:  Solving for p_rgh, Initial residual = 7.44561e-07, Final residual = 7.44561e-07, No Iterations 0
diagonal:  Solving for rho, Initial residual = 0, Final residual = 0, No Iterations 0
time step continuity errors : sum local = 8.57509e-13, global = 8.55944e-13, cumulative = 1.71527e-12
DILUPBiCGStab:  Solving for k, Initial residual = 1, Final residual = 1.77879e-07, No Iterations 1
ExecutionTime = 0.06 s  ClockTime = 0 s

Courant Number mean: 6.34299e-09 max: 3.22413e-08
deltaT = 0.00205314
Time = 0.00350242

diagonal:  Solving for rho, Initial residual = 0, Final residual = 0, No Iterations 0
PIMPLE: iteration 1
DILUPBiCGStab:  Solving for Ux, Initial residual = 0.403205, Final residual = 1.49533e-07, No Iterations 1
DILUPBiCGStab:  Solving for Uy, Initial residual = 0.598909, Final residual = 1.62093e-07, No Iterations 1
DILUPBiCGStab:  Solving for O2, Initial residual = 0.0225802, Final residual = 4.94128e-09, No Iterations 1
DILUPBiCGStab:  Solving for H2O, Initial residual = 0, Final residual = 0, No Iterations 0
DILUPBiCGStab:  Solving for CH4, Initial residual = 0, Final residual = 0, No Iterations 0
DILUPBiCGStab:  Solving for CO2, Initial residual = 0, Final residual = 0, No Iterations 0
DILUPBiCGStab:  Solving for h, Initial residual = 0.996464, Final residual = 3.50998e-07, No Iterations 1
min/max(T) = 300, 300
GAMG:  Solving for p_rgh, Initial residual = 0.000994217, Final residual = 1.59139e-07, No Iterations 1
diagonal:  Solving for rho, Initial residual = 0, Final residual = 0, No Iterations 0
time step continuity errors : sum local = 1.88973e-13, global = 1.21726e-14, cumulative = 1.72744e-12
GAMG:  Solving for p_rgh, Initial residual = 1.43247e-06, Final residual = 3.50298e-10, No Iterations 1
diagonal:  Solving for rho, Initial residual = 0, Final residual = 0, No Iterations 0
time step continuity errors : sum local = 4.4612e-16, global = 1.70431e-17, cumulative = 1.72746e-12
DILUPBiCGStab:  Solving for k, Initial residual = 0.888277, Final residual = 2.25133e-07, No Iterations 1
ExecutionTime = 0.07 s  ClockTime = 0 s

Courant Number mean: 1.72944e-08 max: 7.74855e-08
deltaT = 0.00292417
Time = 0.00642658

diagonal:  Solving for rho, Initial residual = 0, Final residual = 0, No Iterations 0
PIMPLE: iteration 1
DILUPBiCGStab:  Solving for Ux, Initial residual = 0.41389, Final residual = 1.63251e-07, No Iterations 1
DILUPBiCGStab:  Solving for Uy, Initial residual = 0.445275, Final residual = 1.7215e-07, No Iterations 1
DILUPBiCGStab:  Solving for O2, Initial residual = 0.0193665, Final residual = 6.56843e-09, No Iterations 1
DILUPBiCGStab:  Solving for H2O, Initial residual = 0, Final residual = 0, No Iterations 0
DILUPBiCGStab:  Solving for CH4, Initial residual = 0, Final residual = 0, No Iterations 0
DILUPBiCGStab:  Solving for CO2, Initial residual = 0, Final residual = 0, No Iterations 0
DILUPBiCGStab:  Solving for h, Initial residual = 0.999992, Final residual = 3.16639e-07, No Iterations 1
min/max(T) = 300, 300
GAMG:  Solving for p_rgh, Initial residual = 0.00341688, Final residual = 2.41376e-06, No Iterations 1
diagonal:  Solving for rho, Initial residual = 0, Final residual = 0, No Iterations 0
time step continuity errors : sum local = 3.03573e-12, global = 2.03195e-13, cumulative = 1.93065e-12
GAMG:  Solving for p_rgh, Initial residual = 6.00456e-06, Final residual = 1.21252e-08, No Iterations 1
diagonal:  Solving for rho, Initial residual = 0, Final residual = 0, No Iterations 0
time step continuity errors : sum local = 1.53979e-14, global = -6.02309e-16, cumulative = 1.93005e-12
DILUPBiCGStab:  Solving for k, Initial residual = 0.72003, Final residual = 2.586e-07, No Iterations 1
ExecutionTime = 0.08 s  ClockTime = 0 s

Courant Number mean: 4.15605e-08 max: 1.77858e-07
deltaT = 0.00406841
Time = 0.010495

diagonal:  Solving for rho, Initial residual = 0, Final residual = 0, No Iterations 0
PIMPLE: iteration 1
DILUPBiCGStab:  Solving for Ux, Initial residual = 0.374511, Final residual = 2.14872e-07, No Iterations 1
DILUPBiCGStab:  Solving for Uy, Initial residual = 0.369644, Final residual = 1.99375e-07, No Iterations 1
DILUPBiCGStab:  Solving for O2, Initial residual = 0.0223928, Final residual = 1.06088e-08, No Iterations 1
DILUPBiCGStab:  Solving for H2O, Initial residual = 0, Final residual = 0, No Iterations 0
DILUPBiCGStab:  Solving for CH4, Initial residual = 0, Final residual = 0, No Iterations 0
DILUPBiCGStab:  Solving for CO2, Initial residual = 0, Final residual = 0, No Iterations 0
DILUPBiCGStab:  Solving for h, Initial residual = 0.634494, Final residual = 2.96794e-07, No Iterations 1
min/max(T) = 300, 300
GAMG:  Solving for p_rgh, Initial residual = 0.00726738, Final residual = 1.55637e-05, No Iterations 1
diagonal:  Solving for rho, Initial residual = 0, Final residual = 0, No Iterations 0
time step continuity errors : sum local = 2.16714e-11, global = 1.62449e-12, cumulative = 3.55454e-12
GAMG:  Solving for p_rgh, Initial residual = 2.22292e-05, Final residual = 1.89394e-07, No Iterations 1
diagonal:  Solving for rho, Initial residual = 0, Final residual = 0, No Iterations 0
time step continuity errors : sum local = 2.6627e-13, global = -2.53751e-14, cumulative = 3.52917e-12
DILUPBiCGStab:  Solving for k, Initial residual = 0.557102, Final residual = 2.78979e-07, No Iterations 1
ExecutionTime = 0.09 s  ClockTime = 0 s

Courant Number mean: 9.02394e-08 max: 3.80919e-07
deltaT = 0.005967
Time = 0.016462

diagonal:  Solving for rho, Initial residual = 0, Final residual = 0, No Iterations 0
PIMPLE: iteration 1
DILUPBiCGStab:  Solving for Ux, Initial residual = 0.358776, Final residual = 3.20054e-07, No Iterations 1
DILUPBiCGStab:  Solving for Uy, Initial residual = 0.348191, Final residual = 2.75157e-07, No Iterations 1
DILUPBiCGStab:  Solving for O2, Initial residual = 0.0211349, Final residual = 1.38431e-08, No Iterations 1
DILUPBiCGStab:  Solving for H2O, Initial residual = 0, Final residual = 0, No Iterations 0
DILUPBiCGStab:  Solving for CH4, Initial residual = 0, Final residual = 0, No Iterations 0
DILUPBiCGStab:  Solving for CO2, Initial residual = 0, Final residual = 0, No Iterations 0
DILUPBiCGStab:  Solving for h, Initial residual = 0.480617, Final residual = 3.57079e-07, No Iterations 1
min/max(T) = 300, 300
GAMG:  Solving for p_rgh, Initial residual = 0.0111269, Final residual = 7.73695e-05, No Iterations 1
diagonal:  Solving for rho, Initial residual = 0, Final residual = 0, No Iterations 0
time step continuity errors : sum local = 1.32457e-10, global = 1.84913e-11, cumulative = 2.20205e-11
GAMG:  Solving for p_rgh, Initial residual = 8.718e-05, Final residual = 5.8806e-08, No Iterations 2
diagonal:  Solving for rho, Initial residual = 0, Final residual = 0, No Iterations 0
time step continuity errors : sum local = 1.13114e-13, global = -1.37116e-14, cumulative = 2.20068e-11
DILUPBiCGStab:  Solving for k, Initial residual = 0.497136, Final residual = 3.66217e-07, No Iterations 1
ExecutionTime = 0.1 s  ClockTime = 0 s

Courant Number mean: 2.04327e-07 max: 8.67316e-07
deltaT = 0.0083538
Time = 0.0248158

diagonal:  Solving for rho, Initial residual = 0, Final residual = 0, No Iterations 0
PIMPLE: iteration 1
DILUPBiCGStab:  Solving for Ux, Initial residual = 0.328198, Final residual = 4.39347e-07, No Iterations 1
DILUPBiCGStab:  Solving for Uy, Initial residual = 0.330096, Final residual = 3.60645e-07, No Iterations 1
DILUPBiCGStab:  Solving for O2, Initial residual = 0.0270772, Final residual = 2.65363e-08, No Iterations 1
DILUPBiCGStab:  Solving for H2O, Initial residual = 0, Final residual = 0, No Iterations 0
DILUPBiCGStab:  Solving for CH4, Initial residual = 0, Final residual = 0, No Iterations 0
DILUPBiCGStab:  Solving for CO2, Initial residual = 0, Final residual = 0, No Iterations 0
DILUPBiCGStab:  Solving for h, Initial residual = 0.348795, Final residual = 4.00108e-07, No Iterations 1
min/max(T) = 300, 300
GAMG:  Solving for p_rgh, Initial residual = 0.0112541, Final residual = 0.000208826, No Iterations 1
diagonal:  Solving for rho, Initial residual = 0, Final residual = 0, No Iterations 0
time step continuity errors : sum local = 4.7792e-10, global = 1.26081e-10, cumulative = 1.48088e-10
GAMG:  Solving for p_rgh, Initial residual = 0.00021416, Final residual = 4.33408e-07, No Iterations 2
diagonal:  Solving for rho, Initial residual = 0, Final residual = 0, No Iterations 0
time step continuity errors : sum local = 1.03452e-12, global = 2.19242e-13, cumulative = 1.48307e-10
DILUPBiCGStab:  Solving for k, Initial residual = 0.438513, Final residual = 4.53964e-07, No Iterations 1
ExecutionTime = 0.11 s  ClockTime = 0 s

Courant Number mean: 4.24259e-07 max: 1.78859e-06
deltaT = 0.0107406
Time = 0.0355564

diagonal:  Solving for rho, Initial residual = 0, Final residual = 0, No Iterations 0
PIMPLE: iteration 1
DILUPBiCGStab:  Solving for Ux, Initial residual = 0.282069, Final residual = 5.16085e-07, No Iterations 1
DILUPBiCGStab:  Solving for Uy, Initial residual = 0.301848, Final residual = 4.13241e-07, No Iterations 1
DILUPBiCGStab:  Solving for O2, Initial residual = 0.0277417, Final residual = 3.54716e-08, No Iterations 1
DILUPBiCGStab:  Solving for H2O, Initial residual = 0, Final residual = 0, No Iterations 0
DILUPBiCGStab:  Solving for CH4, Initial residual = 0, Final residual = 0, No Iterations 0
DILUPBiCGStab:  Solving for CO2, Initial residual = 0, Final residual = 0, No Iterations 0
DILUPBiCGStab:  Solving for h, Initial residual = 0.222458, Final residual = 3.59734e-07, No Iterations 1
min/max(T) = 300, 300
GAMG:  Solving for p_rgh, Initial residual = 0.0073093, Final residual = 0.000246758, No Iterations 1
diagonal:  Solving for rho, Initial residual = 0, Final residual = 0, No Iterations 0
time step continuity errors : sum local = 7.53628e-10, global = 3.28929e-10, cumulative = 4.77236e-10
GAMG:  Solving for p_rgh, Initial residual = 0.000249429, Final residual = 1.74068e-07, No Iterations 3
diagonal:  Solving for rho, Initial residual = 0, Final residual = 0, No Iterations 0
time step continuity errors : sum local = 6.46982e-13, global = 1.75867e-13, cumulative = 4.77412e-10
DILUPBiCGStab:  Solving for k, Initial residual = 0.36837, Final residual = 4.92632e-07, No Iterations 1
ExecutionTime = 0.12 s  ClockTime = 0 s

Courant Number mean: 7.62537e-07 max: 3.15526e-06
deltaT = 0.0161109
Time = 0.0516673

diagonal:  Solving for rho, Initial residual = 0, Final residual = 0, No Iterations 0
PIMPLE: iteration 1
DILUPBiCGStab:  Solving for Ux, Initial residual = 0.273436, Final residual = 7.83635e-07, No Iterations 1
DILUPBiCGStab:  Solving for Uy, Initial residual = 0.323954, Final residual = 6.54828e-07, No Iterations 1
DILUPBiCGStab:  Solving for O2, Initial residual = 0.0287705, Final residual = 5.02886e-08, No Iterations 1
DILUPBiCGStab:  Solving for H2O, Initial residual = 0, Final residual = 0, No Iterations 0
DILUPBiCGStab:  Solving for CH4, Initial residual = 0, Final residual = 0, No Iterations 0
DILUPBiCGStab:  Solving for CO2, Initial residual = 0, Final residual = 0, No Iterations 0
DILUPBiCGStab:  Solving for h, Initial residual = 0.141782, Final residual = 3.73704e-07, No Iterations 1
min/max(T) = 300, 300
GAMG:  Solving for p_rgh, Initial residual = 0.00397297, Final residual = 0.000252654, No Iterations 1
diagonal:  Solving for rho, Initial residual = 0, Final residual = 0, No Iterations 0
time step continuity errors : sum local = 1.3572e-09, global = 7.55013e-10, cumulative = 1.23243e-09
GAMG:  Solving for p_rgh, Initial residual = 0.000253619, Final residual = 9.46121e-07, No Iterations 3
diagonal:  Solving for rho, Initial residual = 0, Final residual = 0, No Iterations 0
time step continuity errors : sum local = 5.16623e-12, global = 1.89939e-12, cumulative = 1.23432e-09
DILUPBiCGStab:  Solving for k, Initial residual = 0.38725, Final residual = 7.83492e-07, No Iterations 1
ExecutionTime = 0.14 s  ClockTime = 0 s

Courant Number mean: 1.67331e-06 max: 6.94344e-06
deltaT = 0.0161109
Time = 0.0677782

diagonal:  Solving for rho, Initial residual = 0, Final residual = 0, No Iterations 0
PIMPLE: iteration 1
DILUPBiCGStab:  Solving for Ux, Initial residual = 0.174957, Final residual = 5.22143e-07, No Iterations 1
DILUPBiCGStab:  Solving for Uy, Initial residual = 0.237181, Final residual = 4.95692e-07, No Iterations 1
DILUPBiCGStab:  Solving for O2, Initial residual = 0.0364607, Final residual = 7.50731e-08, No Iterations 1
DILUPBiCGStab:  Solving for H2O, Initial residual = 0, Final residual = 0, No Iterations 0
DILUPBiCGStab:  Solving for CH4, Initial residual = 0, Final residual = 0, No Iterations 0
DILUPBiCGStab:  Solving for CO2, Initial residual = 0, Final residual = 0, No Iterations 0
DILUPBiCGStab:  Solving for h, Initial residual = 0.0628727, Final residual = 1.71567e-07, No Iterations 1
min/max(T) = 300, 300
GAMG:  Solving for p_rgh, Initial residual = 0.00754176, Final residual = 0.000321965, No Iterations 1
diagonal:  Solving for rho, Initial residual = 0, Final residual = 0, No Iterations 0
time step continuity errors : sum local = 1.73107e-09, global = 6.87571e-10, cumulative = 1.9219e-09
GAMG:  Solving for p_rgh, Initial residual = 0.000327344, Final residual = 3.39742e-07, No Iterations 3
diagonal:  Solving for rho, Initial residual = 0, Final residual = 0, No Iterations 0
time step continuity errors : sum local = 2.33145e-12, global = 1.28674e-12, cumulative = 1.92318e-09
DILUPBiCGStab:  Solving for k, Initial residual = 0.259076, Final residual = 5.28449e-07, No Iterations 1
ExecutionTime = 0.15 s  ClockTime = 0 s

Courant Number mean: 2.06595e-06 max: 8.3636e-06
deltaT = 0.0161109
Time = 0.0838891

diagonal:  Solving for rho, Initial residual = 0, Final residual = 0, No Iterations 0
PIMPLE: iteration 1
DILUPBiCGStab:  Solving for Ux, Initial residual = 0.139543, Final residual = 4.15753e-07, No Iterations 1
DILUPBiCGStab:  Solving for Uy, Initial residual = 0.187313, Final residual = 4.01069e-07, No Iterations 1
DILUPBiCGStab:  Solving for O2, Initial residual = 0.0371476, Final residual = 7.29024e-08, No Iterations 1
DILUPBiCGStab:  Solving for H2O, Initial residual = 0, Final residual = 0, No Iterations 0
DILUPBiCGStab:  Solving for CH4, Initial residual = 0, Final residual = 0, No Iterations 0
DILUPBiCGStab:  Solving for CO2, Initial residual = 0, Final residual = 0, No Iterations 0
Radiation solver iter: 0
GAMG:  Solving for ILambda_0_0, Initial residual = 1, Final residual = 3.20262e-09, No Iterations 1
GAMG:  Solving for ILambda_1_0, Initial residual = 1, Final residual = 2.73252e-09, No Iterations 1
GAMG:  Solving for ILambda_2_0, Initial residual = 1, Final residual = 0.00476973, No Iterations 1
GAMG:  Solving for ILambda_3_0, Initial residual = 1, Final residual = 0.00251822, No Iterations 1
GAMG:  Solving for ILambda_4_0, Initial residual = 1, Final residual = 3.99445e-09, No Iterations 1
GAMG:  Solving for ILambda_5_0, Initial residual = 1, Final residual = 3.02077e-09, No Iterations 1
GAMG:  Solving for ILambda_6_0, Initial residual = 1, Final residual = 0.00603602, No Iterations 1
GAMG:  Solving for ILambda_7_0, Initial residual = 1, Final residual = 0.00523558, No Iterations 1
DILUPBiCGStab:  Solving for h, Initial residual = 0.0645787, Final residual = 1.79128e-07, No Iterations 1
min/max(T) = 300, 300
GAMG:  Solving for p_rgh, Initial residual = 0.00730075, Final residual = 0.000319826, No Iterations 1
diagonal:  Solving for rho, Initial residual = 0, Final residual = 0, No Iterations 0
time step continuity errors : sum local = 1.73673e-09, global = 2.71995e-10, cumulative = 2.19518e-09
GAMG:  Solving for p_rgh, Initial residual = 0.000324413, Final residual = 3.60633e-07, No Iterations 3
diagonal:  Solving for rho, Initial residual = 0, Final residual = 0, No Iterations 0
time step continuity errors : sum local = 2.37645e-12, global = 4.23558e-13, cumulative = 2.1956e-09
DILUPBiCGStab:  Solving for k, Initial residual = 0.194653, Final residual = 4.00148e-07, No Iterations 1
ExecutionTime = 0.16 s  ClockTime = 0 s

Courant Number mean: 2.46204e-06 max: 9.87421e-06
deltaT = 0.0161109
Time = 0.1

diagonal:  Solving for rho, Initial residual = 0, Final residual = 0, No Iterations 0
PIMPLE: iteration 1
DILUPBiCGStab:  Solving for Ux, Initial residual = 0.119678, Final residual = 3.52999e-07, No Iterations 1
DILUPBiCGStab:  Solving for Uy, Initial residual = 0.155124, Final residual = 3.34405e-07, No Iterations 1
DILUPBiCGStab:  Solving for O2, Initial residual = 0.0387017, Final residual = 7.30964e-08, No Iterations 1
DILUPBiCGStab:  Solving for H2O, Initial residual = 0, Final residual = 0, No Iterations 0
DILUPBiCGStab:  Solving for CH4, Initial residual = 0, Final residual = 0, No Iterations 0
DILUPBiCGStab:  Solving for CO2, Initial residual = 0, Final residual = 0, No Iterations 0
DILUPBiCGStab:  Solving for h, Initial residual = 0.0564659, Final residual = 1.47416e-07, No Iterations 1
min/max(T) = 300, 300
GAMG:  Solving for p_rgh, Initial residual = 0.00602994, Final residual = 0.000330832, No Iterations 1
diagonal:  Solving for rho, Initial residual = 0, Final residual = 0, No Iterations 0
time step continuity errors : sum local = 1.81517e-09, global = -2.79221e-10, cumulative = 1.91638e-09
GAMG:  Solving for p_rgh, Initial residual = 0.000334719, Final residual = 5.78707e-07, No Iterations 3
diagonal:  Solving for rho, Initial residual = 0, Final residual = 0, No Iterations 0
time step continuity errors : sum local = 3.47602e-12, global = -9.26688e-13, cumulative = 1.91545e-09
DILUPBiCGStab:  Solving for k, Initial residual = 0.155891, Final residual = 3.2398e-07, No Iterations 1
ExecutionTime = 0.17 s  ClockTime = 0 s

Courant Number mean: 2.85923e-06 max: 1.13181e-05
deltaT = 0.025
Time = 0.125

diagonal:  Solving for rho, Initial residual = 0, Final residual = 0, No Iterations 0
PIMPLE: iteration 1
DILUPBiCGStab:  Solving for Ux, Initial residual = 0.150407, Final residual = 6.82574e-07, No Iterations 1
DILUPBiCGStab:  Solving for Uy, Initial residual = 0.199118, Final residual = 6.69386e-07, No Iterations 1
DILUPBiCGStab:  Solving for O2, Initial residual = 0.0455459, Final residual = 1.39431e-07, No Iterations 1
DILUPBiCGStab:  Solving for H2O, Initial residual = 0, Final residual = 0, No Iterations 0
DILUPBiCGStab:  Solving for CH4, Initial residual = 0, Final residual = 0, No Iterations 0
DILUPBiCGStab:  Solving for CO2, Initial residual = 0, Final residual = 0, No Iterations 0
DILUPBiCGStab:  Solving for h, Initial residual = 0.06879, Final residual = 2.61617e-07, No Iterations 1
min/max(T) = 300, 300
GAMG:  Solving for p_rgh, Initial residual = 0.0128985, Final residual = 0.000672431, No Iterations 1
diagonal:  Solving for rho, Initial residual = 0, Final residual = 0, No Iterations 0
time step continuity errors : sum local = 7.70923e-09, global = -4.79922e-09, cumulative = -2.88376e-09
GAMG:  Solving for p_rgh, Initial residual = 0.000686844, Final residual = 3.99669e-07, No Iterations 4
diagonal:  Solving for rho, Initial residual = 0, Final residual = 0, No Iterations 0
time step continuity errors : sum local = 4.82127e-12, global = -2.43498e-12, cumulative = -2.8862e-09
DILUPBiCGStab:  Solving for k, Initial residual = 0.20523, Final residual = 6.75835e-07, No Iterations 1
ExecutionTime = 0.18 s  ClockTime = 0 s

Courant Number mean: 5.72316e-06 max: 2.24855e-05
deltaT = 0.025
Time = 0.15

diagonal:  Solving for rho, Initial residual = 0, Final residual = 0, No Iterations 0
PIMPLE: iteration 1
DILUPBiCGStab:  Solving for Ux, Initial residual = 0.0944402, Final residual = 4.35476e-07, No Iterations 1
DILUPBiCGStab:  Solving for Uy, Initial residual = 0.161997, Final residual = 5.88999e-07, No Iterations 1
DILUPBiCGStab:  Solving for O2, Initial residual = 0.0511483, Final residual = 1.58353e-07, No Iterations 1
DILUPBiCGStab:  Solving for H2O, Initial residual = 0, Final residual = 0, No Iterations 0
DILUPBiCGStab:  Solving for CH4, Initial residual = 0, Final residual = 0, No Iterations 0
DILUPBiCGStab:  Solving for CO2, Initial residual = 0, Final residual = 0, No Iterations 0
DILUPBiCGStab:  Solving for h, Initial residual = 0.115552, Final residual = 4.97716e-07, No Iterations 1
min/max(T) = 300, 300
GAMG:  Solving for p_rgh, Initial residual = 0.00621855, Final residual = 0.000373765, No Iterations 1
diagonal:  Solving for rho, Initial residual = 0, Final residual = 0, No Iterations 0
time step continuity errors : sum local = 4.27049e-09, global = -1.91656e-09, cumulative = -4.80276e-09
GAMG:  Solving for p_rgh, Initial residual = 0.00037805, Final residual = 4.10861e-07, No Iterations 4
diagonal:  Solving for rho, Initial residual = 0, Final residual = 0, No Iterations 0
time step continuity errors : sum local = 5.21915e-12, global = -3.38922e-12, cumulative = -4.80615e-09
DILUPBiCGStab:  Solving for k, Initial residual = 0.162597, Final residual = 5.51169e-07, No Iterations 1
ExecutionTime = 0.19 s  ClockTime = 0 s

Courant Number mean: 6.6707e-06 max: 2.61163e-05
deltaT = 0.025
Time = 0.175

diagonal:  Solving for rho, Initial residual = 0, Final residual = 0, No Iterations 0
PIMPLE: iteration 1
DILUPBiCGStab:  Solving for Ux, Initial residual = 0.0844578, Final residual = 3.86212e-07, No Iterations 1
DILUPBiCGStab:  Solving for Uy, Initial residual = 0.136907, Final residual = 5.14323e-07, No Iterations 1
DILUPBiCGStab:  Solving for O2, Initial residual = 0.0455999, Final residual = 1.54476e-07, No Iterations 1
DILUPBiCGStab:  Solving for H2O, Initial residual = 0, Final residual = 0, No Iterations 0
DILUPBiCGStab:  Solving for CH4, Initial residual = 0, Final residual = 0, No Iterations 0
DILUPBiCGStab:  Solving for CO2, Initial residual = 0, Final residual = 0, No Iterations 0
DILUPBiCGStab:  Solving for h, Initial residual = 0.0470243, Final residual = 1.94947e-07, No Iterations 1
min/max(T) = 300, 300
GAMG:  Solving for p_rgh, Initial residual = 0.00714499, Final residual = 0.000351789, No Iterations 1
diagonal:  Solving for rho, Initial residual = 0, Final residual = 0, No Iterations 0
time step continuity errors : sum local = 4.06975e-09, global = 5.35609e-10, cumulative = -4.27054e-09
GAMG:  Solving for p_rgh, Initial residual = 0.000355735, Final residual = 6.91464e-07, No Iterations 3
diagonal:  Solving for rho, Initial residual = 0, Final residual = 0, No Iterations 0
time step continuity errors : sum local = 8.45259e-12, global = -4.06274e-12, cumulative = -4.27461e-09
DILUPBiCGStab:  Solving for k, Initial residual = 0.134633, Final residual = 4.69222e-07, No Iterations 1
ExecutionTime = 0.2 s  ClockTime = 0 s

Courant Number mean: 7.6316e-06 max: 2.96386e-05
deltaT = 0.025
Time = 0.2

diagonal:  Solving for rho, Initial residual = 0, Final residual = 0, No Iterations 0
PIMPLE: iteration 1
DILUPBiCGStab:  Solving for Ux, Initial residual = 0.0805349, Final residual = 3.72659e-07, No Iterations 1
DILUPBiCGStab:  Solving for Uy, Initial residual = 0.118627, Final residual = 4.53956e-07, No Iterations 1
DILUPBiCGStab:  Solving for O2, Initial residual = 0.0521156, Final residual = 1.76692e-07, No Iterations 1
DILUPBiCGStab:  Solving for H2O, Initial residual = 0, Final residual = 0, No Iterations 0
DILUPBiCGStab:  Solving for CH4, Initial residual = 0, Final residual = 0, No Iterations 0
DILUPBiCGStab:  Solving for CO2, Initial residual = 0, Final residual = 0, No Iterations 0
DILUPBiCGStab:  Solving for h, Initial residual = 0.0562253, Final residual = 2.55997e-07, No Iterations 1
min/max(T) = 300, 300
GAMG:  Solving for p_rgh, Initial residual = 0.00447674, Final residual = 0.000229505, No Iterations 1
diagonal:  Solving for rho, Initial residual = 0, Final residual = 0, No Iterations 0
time step continuity errors : sum local = 2.67924e-09, global = 5.84963e-10, cumulative = -3.68964e-09
GAMG:  Solving for p_rgh, Initial residual = 0.000232591, Final residual = 6.25399e-07, No Iterations 3
diagonal:  Solving for rho, Initial residual = 0, Final residual = 0, No Iterations 0
time step continuity errors : sum local = 7.61318e-12, global = -2.16718e-12, cumulative = -3.69181e-09
DILUPBiCGStab:  Solving for k, Initial residual = 0.114878, Final residual = 4.18111e-07, No Iterations 1
ExecutionTime = 0.21 s  ClockTime = 0 s

Courant Number mean: 8.58772e-06 max: 3.3014e-05
deltaT = 0.0333333
Time = 0.233333

diagonal:  Solving for rho, Initial residual = 0, Final residual = 0, No Iterations 0
PIMPLE: iteration 1
DILUPBiCGStab:  Solving for Ux, Initial residual = 0.0954357, Final residual = 6.05464e-07, No Iterations 1
DILUPBiCGStab:  Solving for Uy, Initial residual = 0.137683, Final residual = 7.23291e-07, No Iterations 1
DILUPBiCGStab:  Solving for O2, Initial residual = 0.0560864, Final residual = 2.60687e-07, No Iterations 1
DILUPBiCGStab:  Solving for H2O, Initial residual = 0, Final residual = 0, No Iterations 0
DILUPBiCGStab:  Solving for CH4, Initial residual = 0, Final residual = 0, No Iterations 0
DILUPBiCGStab:  Solving for CO2, Initial residual = 0, Final residual = 0, No Iterations 0
DILUPBiCGStab:  Solving for h, Initial residual = 0.0411291, Final residual = 2.99648e-07, No Iterations 1
min/max(T) = 300, 300
GAMG:  Solving for p_rgh, Initial residual = 0.0102594, Final residual = 0.00058383, No Iterations 1
diagonal:  Solving for rho, Initial residual = 0, Final residual = 0, No Iterations 0
time step continuity errors : sum local = 1.15505e-08, global = -4.19618e-09, cumulative = -7.88799e-09
GAMG:  Solving for p_rgh, Initial residual = 0.000595332, Final residual = 2.87623e-07, No Iterations 4
diagonal:  Solving for rho, Initial residual = 0, Final residual = 0, No Iterations 0
time step continuity errors : sum local = 5.68738e-12, global = -2.79641e-12, cumulative = -7.89078e-09
DILUPBiCGStab:  Solving for k, Initial residual = 0.134639, Final residual = 6.65958e-07, No Iterations 1
ExecutionTime = 0.22 s  ClockTime = 0 s

Courant Number mean: 1.35503e-05 max: 5.18467e-05
deltaT = 0.0333333
Time = 0.266667

diagonal:  Solving for rho, Initial residual = 0, Final residual = 0, No Iterations 0
PIMPLE: iteration 1
DILUPBiCGStab:  Solving for Ux, Initial residual = 0.0678939, Final residual = 4.51734e-07, No Iterations 1
DILUPBiCGStab:  Solving for Uy, Initial residual = 0.11885, Final residual = 6.87201e-07, No Iterations 1
DILUPBiCGStab:  Solving for O2, Initial residual = 0.0761417, Final residual = 3.70225e-07, No Iterations 1
DILUPBiCGStab:  Solving for H2O, Initial residual = 0, Final residual = 0, No Iterations 0
DILUPBiCGStab:  Solving for CH4, Initial residual = 0, Final residual = 0, No Iterations 0
DILUPBiCGStab:  Solving for CO2, Initial residual = 0, Final residual = 0, No Iterations 0
DILUPBiCGStab:  Solving for h, Initial residual = 0.0851014, Final residual = 5.49423e-07, No Iterations 1
min/max(T) = 300, 300
GAMG:  Solving for p_rgh, Initial residual = 0.00594063, Final residual = 0.000303845, No Iterations 1
diagonal:  Solving for rho, Initial residual = 0, Final residual = 0, No Iterations 0
time step continuity errors : sum local = 6.00015e-09, global = 5.40371e-10, cumulative = -7.35041e-09
GAMG:  Solving for p_rgh, Initial residual = 0.000307515, Final residual = 8.44526e-07, No Iterations 3
diagonal:  Solving for rho, Initial residual = 0, Final residual = 0, No Iterations 0
time step continuity errors : sum local = 1.63771e-11, global = -7.31532e-12, cumulative = -7.35773e-09
DILUPBiCGStab:  Solving for k, Initial residual = 0.11488, Final residual = 5.84601e-07, No Iterations 1
ExecutionTime = 0.23 s  ClockTime = 0 s

Courant Number mean: 1.52428e-05 max: 5.8088e-05
deltaT = 0.0333333
Time = 0.3

diagonal:  Solving for rho, Initial residual = 0, Final residual = 0, No Iterations 0
PIMPLE: iteration 1
DILUPBiCGStab:  Solving for Ux, Initial residual = 0.0656986, Final residual = 4.51987e-07, No Iterations 1
DILUPBiCGStab:  Solving for Uy, Initial residual = 0.104692, Final residual = 6.28055e-07, No Iterations 1
DILUPBiCGStab:  Solving for O2, Initial residual = 0.0719937, Final residual = 4.08395e-07, No Iterations 1
DILUPBiCGStab:  Solving for H2O, Initial residual = 0, Final residual = 0, No Iterations 0
DILUPBiCGStab:  Solving for CH4, Initial residual = 0, Final residual = 0, No Iterations 0
DILUPBiCGStab:  Solving for CO2, Initial residual = 0, Final residual = 0, No Iterations 0
DILUPBiCGStab:  Solving for h, Initial residual = 0.0458968, Final residual = 3.16389e-07, No Iterations 1
min/max(T) = 300, 300
GAMG:  Solving for p_rgh, Initial residual = 0.00546666, Final residual = 0.000299059, No Iterations 1
diagonal:  Solving for rho, Initial residual = 0, Final residual = 0, No Iterations 0
time step continuity errors : sum local = 5.96004e-09, global = 2.31695e-10, cumulative = -7.12603e-09
GAMG:  Solving for p_rgh, Initial residual = 0.000302309, Final residual = 2.61455e-07, No Iterations 4
diagonal:  Solving for rho, Initial residual = 0, Final residual = 0, No Iterations 0
time step continuity errors : sum local = 5.51293e-12, global = -2.59467e-12, cumulative = -7.12863e-09
DILUPBiCGStab:  Solving for k, Initial residual = 0.10018, Final residual = 5.2566e-07, No Iterations 1
ExecutionTime = 0.25 s  ClockTime = 0 s

Courant Number mean: 1.69512e-05 max: 6.41329e-05
deltaT = 0.0333333
Time = 0.333333

diagonal:  Solving for rho, Initial residual = 0, Final residual = 0, No Iterations 0
PIMPLE: iteration 1
DILUPBiCGStab:  Solving for Ux, Initial residual = 0.0626436, Final residual = 4.47835e-07, No Iterations 1
DILUPBiCGStab:  Solving for Uy, Initial residual = 0.093575, Final residual = 5.79523e-07, No Iterations 1
DILUPBiCGStab:  Solving for O2, Initial residual = 0.0730211, Final residual = 3.86348e-07, No Iterations 1
DILUPBiCGStab:  Solving for H2O, Initial residual = 0, Final residual = 0, No Iterations 0
DILUPBiCGStab:  Solving for CH4, Initial residual = 0, Final residual = 0, No Iterations 0
DILUPBiCGStab:  Solving for CO2, Initial residual = 0, Final residual = 0, No Iterations 0
DILUPBiCGStab:  Solving for h, Initial residual = 0.0366448, Final residual = 2.9182e-07, No Iterations 1
min/max(T) = 300, 300
GAMG:  Solving for p_rgh, Initial residual = 0.0038128, Final residual = 0.000261098, No Iterations 1
diagonal:  Solving for rho, Initial residual = 0, Final residual = 0, No Iterations 0
time step continuity errors : sum local = 5.23673e-09, global = -1.06013e-09, cumulative = -8.18876e-09
GAMG:  Solving for p_rgh, Initial residual = 0.000263835, Final residual = 3.28118e-07, No Iterations 4
diagonal:  Solving for rho, Initial residual = 0, Final residual = 0, No Iterations 0
time step continuity errors : sum local = 6.90809e-12, global = -3.58571e-12, cumulative = -8.19234e-09
DILUPBiCGStab:  Solving for k, Initial residual = 0.0888156, Final residual = 4.83356e-07, No Iterations 1
ExecutionTime = 0.26 s  ClockTime = 0 s

Courant Number mean: 1.86495e-05 max: 6.99958e-05
deltaT = 0.0333333
Time = 0.366667

diagonal:  Solving for rho, Initial residual = 0, Final residual = 0, No Iterations 0
PIMPLE: iteration 1
DILUPBiCGStab:  Solving for Ux, Initial residual = 0.0573417, Final residual = 4.30184e-07, No Iterations 1
DILUPBiCGStab:  Solving for Uy, Initial residual = 0.0845998, Final residual = 5.45613e-07, No Iterations 1
DILUPBiCGStab:  Solving for O2, Initial residual = 0.0742027, Final residual = 4.04781e-07, No Iterations 1
DILUPBiCGStab:  Solving for H2O, Initial residual = 0, Final residual = 0, No Iterations 0
DILUPBiCGStab:  Solving for CH4, Initial residual = 0, Final residual = 0, No Iterations 0
DILUPBiCGStab:  Solving for CO2, Initial residual = 0, Final residual = 0, No Iterations 0
Radiation solver iter: 0
GAMG:  Solving for ILambda_0_0, Initial residual = 0.191602, Final residual = 1.67646e-09, No Iterations 1
GAMG:  Solving for ILambda_1_0, Initial residual = 0.188807, Final residual = 1.35461e-09, No Iterations 1
GAMG:  Solving for ILambda_2_0, Initial residual = 0.176402, Final residual = 0.00173146, No Iterations 1
GAMG:  Solving for ILambda_3_0, Initial residual = 0.168219, Final residual = 0.000998268, No Iterations 1
GAMG:  Solving for ILambda_4_0, Initial residual = 0.168219, Final residual = 1.61887e-09, No Iterations 1
GAMG:  Solving for ILambda_5_0, Initial residual = 0.176265, Final residual = 1.32001e-09, No Iterations 1
GAMG:  Solving for ILambda_6_0, Initial residual = 0.188502, Final residual = 0.0025907, No Iterations 1
GAMG:  Solving for ILambda_7_0, Initial residual = 0.191499, Final residual = 0.00235468, No Iterations 1
DILUPBiCGStab:  Solving for h, Initial residual = 0.0172086, Final residual = 1.8421e-07, No Iterations 1
min/max(T) = 300, 300
GAMG:  Solving for p_rgh, Initial residual = 0.00357437, Final residual = 0.000298544, No Iterations 1
diagonal:  Solving for rho, Initial residual = 0, Final residual = 0, No Iterations 0
time step continuity errors : sum local = 6.01497e-09, global = -2.74738e-09, cumulative = -1.09397e-08
GAMG:  Solving for p_rgh, Initial residual = 0.000300779, Final residual = 4.74436e-07, No Iterations 4
diagonal:  Solving for rho, Initial residual = 0, Final residual = 0, No Iterations 0
time step continuity errors : sum local = 9.83607e-12, global = -5.19923e-12, cumulative = -1.09449e-08
DILUPBiCGStab:  Solving for k, Initial residual = 0.0797666, Final residual = 4.44924e-07, No Iterations 1
ExecutionTime = 0.28 s  ClockTime = 0 s

Courant Number mean: 2.03463e-05 max: 7.57565e-05
deltaT = 0.0333333
Time = 0.4

diagonal:  Solving for rho, Initial residual = 0, Final residual = 0, No Iterations 0
PIMPLE: iteration 1
DILUPBiCGStab:  Solving for Ux, Initial residual = 0.0521409, Final residual = 4.10951e-07, No Iterations 1
DILUPBiCGStab:  Solving for Uy, Initial residual = 0.0771979, Final residual = 5.19143e-07, No Iterations 1
DILUPBiCGStab:  Solving for O2, Initial residual = 0.0692795, Final residual = 3.72589e-07, No Iterations 1
DILUPBiCGStab:  Solving for H2O, Initial residual = 0, Final residual = 0, No Iterations 0
DILUPBiCGStab:  Solving for CH4, Initial residual = 0, Final residual = 0, No Iterations 0
DILUPBiCGStab:  Solving for CO2, Initial residual = 0, Final residual = 0, No Iterations 0
DILUPBiCGStab:  Solving for h, Initial residual = 0.0144892, Final residual = 1.64986e-07, No Iterations 1
min/max(T) = 300, 300
GAMG:  Solving for p_rgh, Initial residual = 0.00321692, Final residual = 0.00027153, No Iterations 1
diagonal:  Solving for rho, Initial residual = 0, Final residual = 0, No Iterations 0
time step continuity errors : sum local = 5.49324e-09, global = -2.95369e-09, cumulative = -1.38986e-08
GAMG:  Solving for p_rgh, Initial residual = 0.000273564, Final residual = 4.52935e-07, No Iterations 4
diagonal:  Solving for rho, Initial residual = 0, Final residual = 0, No Iterations 0
time step continuity errors : sum local = 9.546e-12, global = -5.55151e-12, cumulative = -1.39042e-08
DILUPBiCGStab:  Solving for k, Initial residual = 0.0723906, Final residual = 4.13214e-07, No Iterations 1
ExecutionTime = 0.29 s  ClockTime = 0 s

Courant Number mean: 2.20428e-05 max: 8.1447e-05
deltaT = 0.0333333
Time = 0.433333

diagonal:  Solving for rho, Initial residual = 0, Final residual = 0, No Iterations 0
PIMPLE: iteration 1
DILUPBiCGStab:  Solving for Ux, Initial residual = 0.047837, Final residual = 3.95508e-07, No Iterations 1
DILUPBiCGStab:  Solving for Uy, Initial residual = 0.0709791, Final residual = 4.96708e-07, No Iterations 1
DILUPBiCGStab:  Solving for O2, Initial residual = 0.0854982, Final residual = 4.5178e-07, No Iterations 1
DILUPBiCGStab:  Solving for H2O, Initial residual = 0, Final residual = 0, No Iterations 0
DILUPBiCGStab:  Solving for CH4, Initial residual = 0, Final residual = 0, No Iterations 0
DILUPBiCGStab:  Solving for CO2, Initial residual = 0, Final residual = 0, No Iterations 0
DILUPBiCGStab:  Solving for h, Initial residual = 0.0121915, Final residual = 1.52717e-07, No Iterations 1
min/max(T) = 300, 300
GAMG:  Solving for p_rgh, Initial residual = 0.00294302, Final residual = 0.000240369, No Iterations 1
diagonal:  Solving for rho, Initial residual = 0, Final residual = 0, No Iterations 0
time step continuity errors : sum local = 4.88088e-09, global = -2.81589e-09, cumulative = -1.67201e-08
GAMG:  Solving for p_rgh, Initial residual = 0.000242162, Final residual = 4.12904e-07, No Iterations 4
diagonal:  Solving for rho, Initial residual = 0, Final residual = 0, No Iterations 0
time step continuity errors : sum local = 8.79357e-12, global = -5.3025e-12, cumulative = -1.67254e-08
DILUPBiCGStab:  Solving for k, Initial residual = 0.0662629, Final residual = 3.89254e-07, No Iterations 1
ExecutionTime = 0.3 s  ClockTime = 0 s

Courant Number mean: 2.37385e-05 max: 8.7081e-05
deltaT = 0.0333333
Time = 0.466667

diagonal:  Solving for rho, Initial residual = 0, Final residual = 0, No Iterations 0
PIMPLE: iteration 1
DILUPBiCGStab:  Solving for Ux, Initial residual = 0.0442235, Final residual = 3.83029e-07, No Iterations 1
DILUPBiCGStab:  Solving for Uy, Initial residual = 0.0656892, Final residual = 4.77583e-07, No Iterations 1
DILUPBiCGStab:  Solving for O2, Initial residual = 0.0795122, Final residual = 4.77282e-07, No Iterations 1
DILUPBiCGStab:  Solving for H2O, Initial residual = 0, Final residual = 0, No Iterations 0
DILUPBiCGStab:  Solving for CH4, Initial residual = 0, Final residual = 0, No Iterations 0
DILUPBiCGStab:  Solving for CO2, Initial residual = 0, Final residual = 0, No Iterations 0
DILUPBiCGStab:  Solving for h, Initial residual = 0.00952932, Final residual = 1.35269e-07, No Iterations 1
min/max(T) = 300, 300
GAMG:  Solving for p_rgh, Initial residual = 0.00273179, Final residual = 0.000213913, No Iterations 1
diagonal:  Solving for rho, Initial residual = 0, Final residual = 0, No Iterations 0
time step continuity errors : sum local = 4.35801e-09, global = -2.6037e-09, cumulative = -1.93291e-08
GAMG:  Solving for p_rgh, Initial residual = 0.000215539, Final residual = 3.6924e-07, No Iterations 4
diagonal:  Solving for rho, Initial residual = 0, Final residual = 0, No Iterations 0
time step continuity errors : sum local = 7.91106e-12, global = -4.84491e-12, cumulative = -1.93339e-08
DILUPBiCGStab:  Solving for k, Initial residual = 0.0610915, Final residual = 3.71248e-07, No Iterations 1
ExecutionTime = 0.31 s  ClockTime = 0 s

Courant Number mean: 2.54336e-05 max: 9.26677e-05
deltaT = 0.0333333
Time = 0.5

diagonal:  Solving for rho, Initial residual = 0, Final residual = 0, No Iterations 0
PIMPLE: iteration 1
DILUPBiCGStab:  Solving for Ux, Initial residual = 0.0410963, Final residual = 3.72732e-07, No Iterations 1
DILUPBiCGStab:  Solving for Uy, Initial residual = 0.0611354, Final residual = 4.61171e-07, No Iterations 1
DILUPBiCGStab:  Solving for O2, Initial residual = 0.0816926, Final residual = 4.8287e-07, No Iterations 1
DILUPBiCGStab:  Solving for H2O, Initial residual = 0, Final residual = 0, No Iterations 0
DILUPBiCGStab:  Solving for CH4, Initial residual = 0, Final residual = 0, No Iterations 0
DILUPBiCGStab:  Solving for CO2, Initial residual = 0, Final residual = 0, No Iterations 0
DILUPBiCGStab:  Solving for h, Initial residual = 0.0078413, Final residual = 1.21717e-07, No Iterations 1
min/max(T) = 300, 300
GAMG:  Solving for p_rgh, Initial residual = 0.00252979, Final residual = 0.000202508, No Iterations 1
diagonal:  Solving for rho, Initial residual = 0, Final residual = 0, No Iterations 0
time step continuity errors : sum local = 4.1379e-09, global = -2.65937e-09, cumulative = -2.19933e-08
GAMG:  Solving for p_rgh, Initial residual = 0.000204034, Final residual = 3.5208e-07, No Iterations 4
diagonal:  Solving for rho, Initial residual = 0, Final residual = 0, No Iterations 0
time step continuity errors : sum local = 7.53305e-12, global = -4.55916e-12, cumulative = -2.19978e-08
DILUPBiCGStab:  Solving for k, Initial residual = 0.0566685, Final residual = 3.56216e-07, No Iterations 1
ExecutionTime = 0.32 s  ClockTime = 0 s

Courant Number mean: 2.7128e-05 max: 9.82142e-05
deltaT = 0.0333333
Time = 0.533333

diagonal:  Solving for rho, Initial residual = 0, Final residual = 0, No Iterations 0
PIMPLE: iteration 1
DILUPBiCGStab:  Solving for Ux, Initial residual = 0.0383432, Final residual = 3.63695e-07, No Iterations 1
DILUPBiCGStab:  Solving for Uy, Initial residual = 0.0571637, Final residual = 4.46942e-07, No Iterations 1
DILUPBiCGStab:  Solving for O2, Initial residual = 0.0802972, Final residual = 4.80526e-07, No Iterations 1
DILUPBiCGStab:  Solving for H2O, Initial residual = 0, Final residual = 0, No Iterations 0
DILUPBiCGStab:  Solving for CH4, Initial residual = 0, Final residual = 0, No Iterations 0
DILUPBiCGStab:  Solving for CO2, Initial residual = 0, Final residual = 0, No Iterations 0
DILUPBiCGStab:  Solving for h, Initial residual = 0.00697966, Final residual = 1.19395e-07, No Iterations 1
min/max(T) = 300, 300
GAMG:  Solving for p_rgh, Initial residual = 0.00238098, Final residual = 0.000190908, No Iterations 1
diagonal:  Solving for rho, Initial residual = 0, Final residual = 0, No Iterations 0
time step continuity errors : sum local = 3.91168e-09, global = -2.64782e-09, cumulative = -2.46456e-08
GAMG:  Solving for p_rgh, Initial residual = 0.000192293, Final residual = 3.3254e-07, No Iterations 4
diagonal:  Solving for rho, Initial residual = 0, Final residual = 0, No Iterations 0
time step continuity errors : sum local = 7.15039e-12, global = -4.37121e-12, cumulative = -2.465e-08
DILUPBiCGStab:  Solving for k, Initial residual = 0.0528425, Final residual = 3.41561e-07, No Iterations 1
ExecutionTime = 0.33 s  ClockTime = 0 s

Courant Number mean: 2.8822e-05 max: 0.000103724
deltaT = 0.0333333
Time = 0.566667

diagonal:  Solving for rho, Initial residual = 0, Final residual = 0, No Iterations 0
PIMPLE: iteration 1
DILUPBiCGStab:  Solving for Ux, Initial residual = 0.0359153, Final residual = 3.56096e-07, No Iterations 1
DILUPBiCGStab:  Solving for Uy, Initial residual = 0.053667, Final residual = 4.34473e-07, No Iterations 1
DILUPBiCGStab:  Solving for O2, Initial residual = 0.0787642, Final residual = 4.92356e-07, No Iterations 1
DILUPBiCGStab:  Solving for H2O, Initial residual = 0, Final residual = 0, No Iterations 0
DILUPBiCGStab:  Solving for CH4, Initial residual = 0, Final residual = 0, No Iterations 0
DILUPBiCGStab:  Solving for CO2, Initial residual = 0, Final residual = 0, No Iterations 0
DILUPBiCGStab:  Solving for h, Initial residual = 0.00642243, Final residual = 1.16032e-07, No Iterations 1
min/max(T) = 300, 300
GAMG:  Solving for p_rgh, Initial residual = 0.00227606, Final residual = 0.000176542, No Iterations 1
diagonal:  Solving for rho, Initial residual = 0, Final residual = 0, No Iterations 0
time step continuity errors : sum local = 3.62672e-09, global = -2.54846e-09, cumulative = -2.71985e-08
GAMG:  Solving for p_rgh, Initial residual = 0.000177869, Final residual = 3.0395e-07, No Iterations 4
diagonal:  Solving for rho, Initial residual = 0, Final residual = 0, No Iterations 0
time step continuity errors : sum local = 6.58182e-12, global = -4.07738e-12, cumulative = -2.72026e-08
DILUPBiCGStab:  Solving for k, Initial residual = 0.0495001, Final residual = 3.30402e-07, No Iterations 1
ExecutionTime = 0.34 s  ClockTime = 0 s

Courant Number mean: 3.05164e-05 max: 0.000109201
deltaT = 0.0333333
Time = 0.6

diagonal:  Solving for rho, Initial residual = 0, Final residual = 0, No Iterations 0
PIMPLE: iteration 1
DILUPBiCGStab:  Solving for Ux, Initial residual = 0.0337769, Final residual = 3.49592e-07, No Iterations 1
DILUPBiCGStab:  Solving for Uy, Initial residual = 0.0505712, Final residual = 4.23455e-07, No Iterations 1
DILUPBiCGStab:  Solving for O2, Initial residual = 0.0780949, Final residual = 4.95456e-07, No Iterations 1
DILUPBiCGStab:  Solving for H2O, Initial residual = 0, Final residual = 0, No Iterations 0
DILUPBiCGStab:  Solving for CH4, Initial residual = 0, Final residual = 0, No Iterations 0
DILUPBiCGStab:  Solving for CO2, Initial residual = 0, Final residual = 0, No Iterations 0
DILUPBiCGStab:  Solving for h, Initial residual = 0.00584597, Final residual = 1.10966e-07, No Iterations 1
min/max(T) = 300, 300
GAMG:  Solving for p_rgh, Initial residual = 0.00217916, Final residual = 0.000166452, No Iterations 1
diagonal:  Solving for rho, Initial residual = 0, Final residual = 0, No Iterations 0
time step continuity errors : sum local = 3.42766e-09, global = -2.50154e-09, cumulative = -2.97041e-08
GAMG:  Solving for p_rgh, Initial residual = 0.0001677, Final residual = 2.83937e-07, No Iterations 4
diagonal:  Solving for rho, Initial residual = 0, Final residual = 0, No Iterations 0
time step continuity errors : sum local = 6.16836e-12, global = -3.84359e-12, cumulative = -2.97079e-08
DILUPBiCGStab:  Solving for k, Initial residual = 0.0465552, Final residual = 3.20437e-07, No Iterations 1
ExecutionTime = 0.35 s  ClockTime = 0 s

Courant Number mean: 3.22103e-05 max: 0.000114647
deltaT = 0.05
Time = 0.65

diagonal:  Solving for rho, Initial residual = 0, Final residual = 0, No Iterations 0
PIMPLE: iteration 1
DILUPBiCGStab:  Solving for Ux, Initial residual = 0.0470685, Final residual = 7.62424e-07, No Iterations 1
DILUPBiCGStab:  Solving for Uy, Initial residual = 0.0710891, Final residual = 9.22567e-07, No Iterations 1
DILUPBiCGStab:  Solving for O2, Initial residual = 0.075517, Final residual = 7.91897e-07, No Iterations 1
DILUPBiCGStab:  Solving for H2O, Initial residual = 0, Final residual = 0, No Iterations 0
DILUPBiCGStab:  Solving for CH4, Initial residual = 0, Final residual = 0, No Iterations 0
DILUPBiCGStab:  Solving for CO2, Initial residual = 0, Final residual = 0, No Iterations 0
DILUPBiCGStab:  Solving for h, Initial residual = 0.00808, Final residual = 2.3921e-07, No Iterations 1
min/max(T) = 300, 300
GAMG:  Solving for p_rgh, Initial residual = 0.0220786, Final residual = 0.00123571, No Iterations 1
diagonal:  Solving for rho, Initial residual = 0, Final residual = 0, No Iterations 0
time step continuity errors : sum local = 5.48908e-08, global = -1.07296e-09, cumulative = -3.07809e-08
GAMG:  Solving for p_rgh, Initial residual = 0.0012731, Final residual = 4.168e-07, No Iterations 5
diagonal:  Solving for rho, Initial residual = 0, Final residual = 0, No Iterations 0
time step continuity errors : sum local = 1.82851e-11, global = 6.86033e-12, cumulative = -3.0774e-08
DILUPBiCGStab:  Solving for k, Initial residual = 0.0662514, Final residual = 7.18427e-07, No Iterations 1
ExecutionTime = 0.36 s  ClockTime = 0 s

Courant Number mean: 5.33203e-05 max: 0.000190404
deltaT = 0.05
Time = 0.7

diagonal:  Solving for rho, Initial residual = 0, Final residual = 0, No Iterations 0
PIMPLE: iteration 1
DILUPBiCGStab:  Solving for Ux, Initial residual = 0.0309732, Final residual = 5.33437e-07, No Iterations 1
DILUPBiCGStab:  Solving for Uy, Initial residual = 0.0657313, Final residual = 9.7519e-07, No Iterations 1
DILUPBiCGStab:  Solving for O2, Initial residual = 0.071798, Final residual = 7.44993e-07, No Iterations 1
DILUPBiCGStab:  Solving for H2O, Initial residual = 0, Final residual = 0, No Iterations 0
DILUPBiCGStab:  Solving for CH4, Initial residual = 0, Final residual = 0, No Iterations 0
DILUPBiCGStab:  Solving for CO2, Initial residual = 0, Final residual = 0, No Iterations 0
DILUPBiCGStab:  Solving for h, Initial residual = 0.137338, Final residual = 3.42597e-11, No Iterations 1
min/max(T) = 300, 300
GAMG:  Solving for p_rgh, Initial residual = 0.00732647, Final residual = 0.000532532, No Iterations 1
diagonal:  Solving for rho, Initial residual = 0, Final residual = 0, No Iterations 0
time step continuity errors : sum local = 2.34452e-08, global = 1.34309e-08, cumulative = -1.73431e-08
GAMG:  Solving for p_rgh, Initial residual = 0.000535025, Final residual = 6.47548e-07, No Iterations 4
diagonal:  Solving for rho, Initial residual = 0, Final residual = 0, No Iterations 0
time step continuity errors : sum local = 3.0335e-11, global = 1.76719e-11, cumulative = -1.73255e-08
DILUPBiCGStab:  Solving for k, Initial residual = 0.0610755, Final residual = 7.07885e-07, No Iterations 1
ExecutionTime = 0.37 s  ClockTime = 0 s

Courant Number mean: 5.71241e-05 max: 0.000204248
deltaT = 0.05
Time = 0.75

diagonal:  Solving for rho, Initial residual = 0, Final residual = 0, No Iterations 0
PIMPLE: iteration 1
DILUPBiCGStab:  Solving for Ux, Initial residual = 0.0350649, Final residual = 6.00426e-07, No Iterations 1
DILUPBiCGStab:  Solving for Uy, Initial residual = 0.0611487, Final residual = 9.20006e-07, No Iterations 1
DILUPBiCGStab:  Solving for O2, Initial residual = 0.0705839, Final residual = 7.53476e-07, No Iterations 1
DILUPBiCGStab:  Solving for H2O, Initial residual = 0, Final residual = 0, No Iterations 0
DILUPBiCGStab:  Solving for CH4, Initial residual = 0, Final residual = 0, No Iterations 0
DILUPBiCGStab:  Solving for CO2, Initial residual = 0, Final residual = 0, No Iterations 0
Radiation solver iter: 0
GAMG:  Solving for ILambda_0_0, Initial residual = 0.104274, Final residual = 1.44475e-09, No Iterations 1
GAMG:  Solving for ILambda_1_0, Initial residual = 0.105428, Final residual = 1.22538e-09, No Iterations 1
GAMG:  Solving for ILambda_2_0, Initial residual = 0.105527, Final residual = 0.000896117, No Iterations 1
GAMG:  Solving for ILambda_3_0, Initial residual = 0.101947, Final residual = 0.000546377, No Iterations 1
GAMG:  Solving for ILambda_4_0, Initial residual = 0.102014, Final residual = 1.5392e-09, No Iterations 1
GAMG:  Solving for ILambda_5_0, Initial residual = 0.10554, Final residual = 1.22711e-09, No Iterations 1
GAMG:  Solving for ILambda_6_0, Initial residual = 0.105828, Final residual = 0.00144286, No Iterations 1
GAMG:  Solving for ILambda_7_0, Initial residual = 0.104488, Final residual = 0.00128057, No Iterations 1
DILUPBiCGStab:  Solving for h, Initial residual = 0.0792268, Final residual = 1.64615e-11, No Iterations 1
min/max(T) = 300, 300
GAMG:  Solving for p_rgh, Initial residual = 0.00484976, Final residual = 0.000234933, No Iterations 1
diagonal:  Solving for rho, Initial residual = 0, Final residual = 0, No Iterations 0
time step continuity errors : sum local = 1.04193e-08, global = 3.086e-09, cumulative = -1.42395e-08
GAMG:  Solving for p_rgh, Initial residual = 0.000238064, Final residual = 5.65572e-07, No Iterations 3
diagonal:  Solving for rho, Initial residual = 0, Final residual = 0, No Iterations 0
time step continuity errors : sum local = 2.56696e-11, global = 8.7047e-12, cumulative = -1.42308e-08
DILUPBiCGStab:  Solving for k, Initial residual = 0.0566516, Final residual = 6.69572e-07, No Iterations 1
ExecutionTime = 0.39 s  ClockTime = 0 s

Courant Number mean: 6.09661e-05 max: 0.000217536
deltaT = 0.05
Time = 0.8

diagonal:  Solving for rho, Initial residual = 0, Final residual = 0, No Iterations 0
PIMPLE: iteration 1
DILUPBiCGStab:  Solving for Ux, Initial residual = 0.0353198, Final residual = 6.33533e-07, No Iterations 1
DILUPBiCGStab:  Solving for Uy, Initial residual = 0.0571616, Final residual = 8.86034e-07, No Iterations 1
DILUPBiCGStab:  Solving for O2, Initial residual = 0.0735807, Final residual = 8.52274e-07, No Iterations 1
DILUPBiCGStab:  Solving for H2O, Initial residual = 0, Final residual = 0, No Iterations 0
DILUPBiCGStab:  Solving for CH4, Initial residual = 0, Final residual = 0, No Iterations 0
DILUPBiCGStab:  Solving for CO2, Initial residual = 0, Final residual = 0, No Iterations 0
DILUPBiCGStab:  Solving for h, Initial residual = 0.032665, Final residual = 7.00877e-07, No Iterations 1
min/max(T) = 300, 300
GAMG:  Solving for p_rgh, Initial residual = 0.00340354, Final residual = 0.000229559, No Iterations 1
diagonal:  Solving for rho, Initial residual = 0, Final residual = 0, No Iterations 0
time step continuity errors : sum local = 1.02353e-08, global = -2.49107e-09, cumulative = -1.67218e-08
GAMG:  Solving for p_rgh, Initial residual = 0.000231915, Final residual = 3.40846e-07, No Iterations 4
diagonal:  Solving for rho, Initial residual = 0, Final residual = 0, No Iterations 0
time step continuity errors : sum local = 1.53732e-11, global = -7.09559e-12, cumulative = -1.67289e-08
DILUPBiCGStab:  Solving for k, Initial residual = 0.0528241, Final residual = 6.50863e-07, No Iterations 1
ExecutionTime = 0.41 s  ClockTime = 0 s

Courant Number mean: 6.47791e-05 max: 0.00023045
deltaT = 0.05
Time = 0.85

diagonal:  Solving for rho, Initial residual = 0, Final residual = 0, No Iterations 0
PIMPLE: iteration 1
DILUPBiCGStab:  Solving for Ux, Initial residual = 0.03373, Final residual = 6.42186e-07, No Iterations 1
DILUPBiCGStab:  Solving for Uy, Initial residual = 0.0536634, Final residual = 8.63125e-07, No Iterations 1
DILUPBiCGStab:  Solving for O2, Initial residual = 0.0722548, Final residual = 8.64035e-07, No Iterations 1
DILUPBiCGStab:  Solving for H2O, Initial residual = 0, Final residual = 0, No Iterations 0
DILUPBiCGStab:  Solving for CH4, Initial residual = 0, Final residual = 0, No Iterations 0
DILUPBiCGStab:  Solving for CO2, Initial residual = 0, Final residual = 0, No Iterations 0
DILUPBiCGStab:  Solving for h, Initial residual = 0.015651, Final residual = 4.45985e-07, No Iterations 1
min/max(T) = 300, 300
GAMG:  Solving for p_rgh, Initial residual = 0.00299272, Final residual = 0.000255246, No Iterations 1
diagonal:  Solving for rho, Initial residual = 0, Final residual = 0, No Iterations 0
time step continuity errors : sum local = 1.14284e-08, global = -6.40503e-09, cumulative = -2.3134e-08
GAMG:  Solving for p_rgh, Initial residual = 0.000257211, Final residual = 5.01287e-07, No Iterations 4
diagonal:  Solving for rho, Initial residual = 0, Final residual = 0, No Iterations 0
time step continuity errors : sum local = 2.27482e-11, global = -1.21786e-11, cumulative = -2.31461e-08
DILUPBiCGStab:  Solving for k, Initial residual = 0.04948, Final residual = 6.35786e-07, No Iterations 1
ExecutionTime = 0.42 s  ClockTime = 0 s

Courant Number mean: 6.86009e-05 max: 0.000243148
deltaT = 0.05
Time = 0.9

diagonal:  Solving for rho, Initial residual = 0, Final residual = 0, No Iterations 0
PIMPLE: iteration 1
DILUPBiCGStab:  Solving for Ux, Initial residual = 0.0319453, Final residual = 6.43608e-07, No Iterations 1
DILUPBiCGStab:  Solving for Uy, Initial residual = 0.0505689, Final residual = 8.45392e-07, No Iterations 1
DILUPBiCGStab:  Solving for O2, Initial residual = 0.0707358, Final residual = 8.27914e-07, No Iterations 1
DILUPBiCGStab:  Solving for H2O, Initial residual = 0, Final residual = 0, No Iterations 0
DILUPBiCGStab:  Solving for CH4, Initial residual = 0, Final residual = 0, No Iterations 0
DILUPBiCGStab:  Solving for CO2, Initial residual = 0, Final residual = 0, No Iterations 0
DILUPBiCGStab:  Solving for h, Initial residual = 0.0128686, Final residual = 3.8026e-07, No Iterations 1
min/max(T) = 300, 300
GAMG:  Solving for p_rgh, Initial residual = 0.00248789, Final residual = 0.000194988, No Iterations 1
diagonal:  Solving for rho, Initial residual = 0, Final residual = 0, No Iterations 0
time step continuity errors : sum local = 8.76407e-09, global = -4.44742e-09, cumulative = -2.75936e-08
GAMG:  Solving for p_rgh, Initial residual = 0.000196742, Final residual = 3.81185e-07, No Iterations 4
diagonal:  Solving for rho, Initial residual = 0, Final residual = 0, No Iterations 0
time step continuity errors : sum local = 1.76268e-11, global = -1.04058e-11, cumulative = -2.7604e-08
DILUPBiCGStab:  Solving for k, Initial residual = 0.0465332, Final residual = 6.21264e-07, No Iterations 1
ExecutionTime = 0.43 s  ClockTime = 0 s

Courant Number mean: 7.24138e-05 max: 0.000255678
deltaT = 0.05
Time = 0.95

diagonal:  Solving for rho, Initial residual = 0, Final residual = 0, No Iterations 0
PIMPLE: iteration 1
DILUPBiCGStab:  Solving for Ux, Initial residual = 0.0304734, Final residual = 6.46244e-07, No Iterations 1
DILUPBiCGStab:  Solving for Uy, Initial residual = 0.0478121, Final residual = 8.28863e-07, No Iterations 1
DILUPBiCGStab:  Solving for O2, Initial residual = 0.0703717, Final residual = 8.58429e-07, No Iterations 1
DILUPBiCGStab:  Solving for H2O, Initial residual = 0, Final residual = 0, No Iterations 0
DILUPBiCGStab:  Solving for CH4, Initial residual = 0, Final residual = 0, No Iterations 0
DILUPBiCGStab:  Solving for CO2, Initial residual = 0, Final residual = 0, No Iterations 0
DILUPBiCGStab:  Solving for h, Initial residual = 0.00919943, Final residual = 3.35328e-07, No Iterations 1
min/max(T) = 300, 300
GAMG:  Solving for p_rgh, Initial residual = 0.00236472, Final residual = 0.000193921, No Iterations 1
diagonal:  Solving for rho, Initial residual = 0, Final residual = 0, No Iterations 0
time step continuity errors : sum local = 8.74331e-09, global = -5.35043e-09, cumulative = -3.29544e-08
GAMG:  Solving for p_rgh, Initial residual = 0.00019545, Final residual = 4.2474e-07, No Iterations 4
diagonal:  Solving for rho, Initial residual = 0, Final residual = 0, No Iterations 0
time step continuity errors : sum local = 1.94836e-11, global = -1.13086e-11, cumulative = -3.29657e-08
DILUPBiCGStab:  Solving for k, Initial residual = 0.0439241, Final residual = 6.07612e-07, No Iterations 1
ExecutionTime = 0.44 s  ClockTime = 0 s

Courant Number mean: 7.62318e-05 max: 0.000268076
deltaT = 0.05
Time = 1

diagonal:  Solving for rho, Initial residual = 0, Final residual = 0, No Iterations 0
PIMPLE: iteration 1
DILUPBiCGStab:  Solving for Ux, Initial residual = 0.0290165, Final residual = 6.4646e-07, No Iterations 1
DILUPBiCGStab:  Solving for Uy, Initial residual = 0.0453405, Final residual = 8.14864e-07, No Iterations 1
DILUPBiCGStab:  Solving for O2, Initial residual = 0.069671, Final residual = 9.7653e-07, No Iterations 1
DILUPBiCGStab:  Solving for H2O, Initial residual = 0, Final residual = 0, No Iterations 0
DILUPBiCGStab:  Solving for CH4, Initial residual = 0, Final residual = 0, No Iterations 0
DILUPBiCGStab:  Solving for CO2, Initial residual = 0, Final residual = 0, No Iterations 0
DILUPBiCGStab:  Solving for h, Initial residual = 0.00754022, Final residual = 2.9008e-07, No Iterations 1
min/max(T) = 300, 300
GAMG:  Solving for p_rgh, Initial residual = 0.00214222, Final residual = 0.000158248, No Iterations 1
diagonal:  Solving for rho, Initial residual = 0, Final residual = 0, No Iterations 0
time step continuity errors : sum local = 7.15562e-09, global = -4.20714e-09, cumulative = -3.71729e-08
GAMG:  Solving for p_rgh, Initial residual = 0.000159604, Final residual = 3.37376e-07, No Iterations 4
diagonal:  Solving for rho, Initial residual = 0, Final residual = 0, No Iterations 0
time step continuity errors : sum local = 1.56264e-11, global = -9.43953e-12, cumulative = -3.71823e-08
DILUPBiCGStab:  Solving for k, Initial residual = 0.0415874, Final residual = 5.95172e-07, No Iterations 1
ExecutionTime = 0.45 s  ClockTime = 0 s

Courant Number mean: 8.0045e-05 max: 0.000280363
deltaT = 0.05
Time = 1.05

diagonal:  Solving for rho, Initial residual = 0, Final residual = 0, No Iterations 0
PIMPLE: iteration 1
DILUPBiCGStab:  Solving for Ux, Initial residual = 0.02773, Final residual = 6.4715e-07, No Iterations 1
DILUPBiCGStab:  Solving for Uy, Initial residual = 0.0431114, Final residual = 8.02125e-07, No Iterations 1
DILUPBiCGStab:  Solving for O2, Initial residual = 0.0703909, Final residual = 8.97964e-07, No Iterations 1
DILUPBiCGStab:  Solving for H2O, Initial residual = 0, Final residual = 0, No Iterations 0
DILUPBiCGStab:  Solving for CH4, Initial residual = 0, Final residual = 0, No Iterations 0
DILUPBiCGStab:  Solving for CO2, Initial residual = 0, Final residual = 0, No Iterations 0
DILUPBiCGStab:  Solving for h, Initial residual = 0.00570756, Final residual = 2.68848e-07, No Iterations 1
min/max(T) = 300, 300
GAMG:  Solving for p_rgh, Initial residual = 0.00208622, Final residual = 0.000169179, No Iterations 1
diagonal:  Solving for rho, Initial residual = 0, Final residual = 0, No Iterations 0
time step continuity errors : sum local = 7.66879e-09, global = -5.36965e-09, cumulative = -4.2552e-08
GAMG:  Solving for p_rgh, Initial residual = 0.000170433, Final residual = 3.78353e-07, No Iterations 4
diagonal:  Solving for rho, Initial residual = 0, Final residual = 0, No Iterations 0
time step continuity errors : sum local = 1.74239e-11, global = -1.01888e-11, cumulative = -4.25621e-08
DILUPBiCGStab:  Solving for k, Initial residual = 0.0394869, Final residual = 5.83756e-07, No Iterations 1
ExecutionTime = 0.46 s  ClockTime = 0 s

Courant Number mean: 8.38621e-05 max: 0.00029256
deltaT = 0.05
Time = 1.1

diagonal:  Solving for rho, Initial residual = 0, Final residual = 0, No Iterations 0
PIMPLE: iteration 1
DILUPBiCGStab:  Solving for Ux, Initial residual = 0.026464, Final residual = 6.4617e-07, No Iterations 1
DILUPBiCGStab:  Solving for Uy, Initial residual = 0.0410911, Final residual = 7.9105e-07, No Iterations 1
DILUPBiCGStab:  Solving for O2, Initial residual = 0.069443, Final residual = 9.35111e-07, No Iterations 1
DILUPBiCGStab:  Solving for H2O, Initial residual = 0, Final residual = 0, No Iterations 0
DILUPBiCGStab:  Solving for CH4, Initial residual = 0, Final residual = 0, No Iterations 0
DILUPBiCGStab:  Solving for CO2, Initial residual = 0, Final residual = 0, No Iterations 0
DILUPBiCGStab:  Solving for h, Initial residual = 0.00564547, Final residual = 2.59453e-07, No Iterations 1
min/max(T) = 300, 300
GAMG:  Solving for p_rgh, Initial residual = 0.00192728, Final residual = 0.000148732, No Iterations 1
diagonal:  Solving for rho, Initial residual = 0, Final residual = 0, No Iterations 0
time step continuity errors : sum local = 6.75823e-09, global = -4.70807e-09, cumulative = -4.72702e-08
GAMG:  Solving for p_rgh, Initial residual = 0.00014987, Final residual = 3.27454e-07, No Iterations 4
diagonal:  Solving for rho, Initial residual = 0, Final residual = 0, No Iterations 0
time step continuity errors : sum local = 1.52041e-11, global = -9.17166e-12, cumulative = -4.72794e-08
DILUPBiCGStab:  Solving for k, Initial residual = 0.0375886, Final residual = 5.73339e-07, No Iterations 1
ExecutionTime = 0.47 s  ClockTime = 0 s

Courant Number mean: 8.76743e-05 max: 0.000304676
deltaT = 0.05
Time = 1.15

diagonal:  Solving for rho, Initial residual = 0, Final residual = 0, No Iterations 0
PIMPLE: iteration 1
DILUPBiCGStab:  Solving for Ux, Initial residual = 0.0253216, Final residual = 6.45481e-07, No Iterations 1
DILUPBiCGStab:  Solving for Uy, Initial residual = 0.0392517, Final residual = 7.80664e-07, No Iterations 1
DILUPBiCGStab:  Solving for O2, Initial residual = 0.0673245, Final residual = 9.36821e-07, No Iterations 1
DILUPBiCGStab:  Solving for H2O, Initial residual = 0, Final residual = 0, No Iterations 0
DILUPBiCGStab:  Solving for CH4, Initial residual = 0, Final residual = 0, No Iterations 0
DILUPBiCGStab:  Solving for CO2, Initial residual = 0, Final residual = 0, No Iterations 0
DILUPBiCGStab:  Solving for h, Initial residual = 0.00476722, Final residual = 2.36062e-07, No Iterations 1
min/max(T) = 300, 300
GAMG:  Solving for p_rgh, Initial residual = 0.00191963, Final residual = 0.000146883, No Iterations 1
diagonal:  Solving for rho, Initial residual = 0, Final residual = 0, No Iterations 0
time step continuity errors : sum local = 6.68868e-09, global = -5.01199e-09, cumulative = -5.22914e-08
GAMG:  Solving for p_rgh, Initial residual = 0.000147856, Final residual = 3.19277e-07, No Iterations 4
diagonal:  Solving for rho, Initial residual = 0, Final residual = 0, No Iterations 0
time step continuity errors : sum local = 1.48323e-11, global = -8.94519e-12, cumulative = -5.23003e-08
DILUPBiCGStab:  Solving for k, Initial residual = 0.0358624, Final residual = 5.63741e-07, No Iterations 1
ExecutionTime = 0.49 s  ClockTime = 0 s

Courant Number mean: 9.14868e-05 max: 0.000316727
deltaT = 0.05
Time = 1.2

diagonal:  Solving for rho, Initial residual = 0, Final residual = 0, No Iterations 0
PIMPLE: iteration 1
DILUPBiCGStab:  Solving for Ux, Initial residual = 0.024255, Final residual = 6.44348e-07, No Iterations 1
DILUPBiCGStab:  Solving for Uy, Initial residual = 0.0375698, Final residual = 7.7154e-07, No Iterations 1
DILUPBiCGStab:  Solving for O2, Initial residual = 0.0650863, Final residual = 9.13325e-07, No Iterations 1
DILUPBiCGStab:  Solving for H2O, Initial residual = 0, Final residual = 0, No Iterations 0
DILUPBiCGStab:  Solving for CH4, Initial residual = 0, Final residual = 0, No Iterations 0
DILUPBiCGStab:  Solving for CO2, Initial residual = 0, Final residual = 0, No Iterations 0
DILUPBiCGStab:  Solving for h, Initial residual = 0.00440784, Final residual = 2.23985e-07, No Iterations 1
min/max(T) = 300, 300
GAMG:  Solving for p_rgh, Initial residual = 0.00180044, Final residual = 0.000135268, No Iterations 1
diagonal:  Solving for rho, Initial residual = 0, Final residual = 0, No Iterations 0
time step continuity errors : sum local = 6.17251e-09, global = -4.61938e-09, cumulative = -5.69197e-08
GAMG:  Solving for p_rgh, Initial residual = 0.000136194, Final residual = 3.01682e-07, No Iterations 4
diagonal:  Solving for rho, Initial residual = 0, Final residual = 0, No Iterations 0
time step continuity errors : sum local = 1.40355e-11, global = -8.4132e-12, cumulative = -5.69281e-08
DILUPBiCGStab:  Solving for k, Initial residual = 0.0342873, Final residual = 5.54999e-07, No Iterations 1
ExecutionTime = 0.5 s  ClockTime = 0 s

Courant Number mean: 9.52969e-05 max: 0.000328713
deltaT = 0.05
Time = 1.25

diagonal:  Solving for rho, Initial residual = 0, Final residual = 0, No Iterations 0
PIMPLE: iteration 1
DILUPBiCGStab:  Solving for Ux, Initial residual = 0.0232641, Final residual = 6.43213e-07, No Iterations 1
DILUPBiCGStab:  Solving for Uy, Initial residual = 0.0360261, Final residual = 7.62935e-07, No Iterations 1
DILUPBiCGStab:  Solving for O2, Initial residual = 0.0640555, Final residual = 1.01274e-06, No Iterations 1
DILUPBiCGStab:  Solving for H2O, Initial residual = 0, Final residual = 0, No Iterations 0
DILUPBiCGStab:  Solving for CH4, Initial residual = 0, Final residual = 0, No Iterations 0
DILUPBiCGStab:  Solving for CO2, Initial residual = 0, Final residual = 0, No Iterations 0
Radiation solver iter: 0
GAMG:  Solving for ILambda_0_0, Initial residual = 0.130403, Final residual = 1.31674e-09, No Iterations 1
GAMG:  Solving for ILambda_1_0, Initial residual = 0.136981, Final residual = 1.16594e-09, No Iterations 1
GAMG:  Solving for ILambda_2_0, Initial residual = 0.137639, Final residual = 0.00126042, No Iterations 1
GAMG:  Solving for ILambda_3_0, Initial residual = 0.133935, Final residual = 0.000789222, No Iterations 1
GAMG:  Solving for ILambda_4_0, Initial residual = 0.133901, Final residual = 1.45819e-09, No Iterations 1
GAMG:  Solving for ILambda_5_0, Initial residual = 0.137561, Final residual = 1.19158e-09, No Iterations 1
GAMG:  Solving for ILambda_6_0, Initial residual = 0.137137, Final residual = 0.00144781, No Iterations 1
GAMG:  Solving for ILambda_7_0, Initial residual = 0.13052, Final residual = 0.0011106, No Iterations 1
DILUPBiCGStab:  Solving for h, Initial residual = 0.004057, Final residual = 2.22247e-07, No Iterations 1
min/max(T) = 300, 300
GAMG:  Solving for p_rgh, Initial residual = 0.00173385, Final residual = 0.000128747, No Iterations 1
diagonal:  Solving for rho, Initial residual = 0, Final residual = 0, No Iterations 0
time step continuity errors : sum local = 5.88621e-09, global = -4.38385e-09, cumulative = -6.1312e-08
GAMG:  Solving for p_rgh, Initial residual = 0.000129662, Final residual = 2.74839e-07, No Iterations 4
diagonal:  Solving for rho, Initial residual = 0, Final residual = 0, No Iterations 0
time step continuity errors : sum local = 1.28459e-11, global = -7.84399e-12, cumulative = -6.13198e-08
DILUPBiCGStab:  Solving for k, Initial residual = 0.0328443, Final residual = 5.46911e-07, No Iterations 1
ExecutionTime = 0.51 s  ClockTime = 0 s

Courant Number mean: 9.91062e-05 max: 0.00034064
deltaT = 0.05
Time = 1.3

diagonal:  Solving for rho, Initial residual = 0, Final residual = 0, No Iterations 0
PIMPLE: iteration 1
DILUPBiCGStab:  Solving for Ux, Initial residual = 0.02236, Final residual = 6.42429e-07, No Iterations 1
DILUPBiCGStab:  Solving for Uy, Initial residual = 0.0346042, Final residual = 7.55133e-07, No Iterations 1
DILUPBiCGStab:  Solving for O2, Initial residual = 0.0610096, Final residual = 9.11215e-07, No Iterations 1
DILUPBiCGStab:  Solving for H2O, Initial residual = 0, Final residual = 0, No Iterations 0
DILUPBiCGStab:  Solving for CH4, Initial residual = 0, Final residual = 0, No Iterations 0
DILUPBiCGStab:  Solving for CO2, Initial residual = 0, Final residual = 0, No Iterations 0
DILUPBiCGStab:  Solving for h, Initial residual = 0.00379869, Final residual = 2.21874e-07, No Iterations 1
min/max(T) = 300, 300
GAMG:  Solving for p_rgh, Initial residual = 0.00161781, Final residual = 0.000120482, No Iterations 1
diagonal:  Solving for rho, Initial residual = 0, Final residual = 0, No Iterations 0
time step continuity errors : sum local = 5.51824e-09, global = -4.191e-09, cumulative = -6.55108e-08
GAMG:  Solving for p_rgh, Initial residual = 0.000121371, Final residual = 2.63871e-07, No Iterations 4
diagonal:  Solving for rho, Initial residual = 0, Final residual = 0, No Iterations 0
time step continuity errors : sum local = 1.23351e-11, global = -7.46207e-12, cumulative = -6.55183e-08
DILUPBiCGStab:  Solving for k, Initial residual = 0.0315174, Final residual = 5.39386e-07, No Iterations 1
ExecutionTime = 0.53 s  ClockTime = 0 s

Courant Number mean: 0.000102913 max: 0.000352512
deltaT = 0.05
Time = 1.35

diagonal:  Solving for rho, Initial residual = 0, Final residual = 0, No Iterations 0
PIMPLE: iteration 1
DILUPBiCGStab:  Solving for Ux, Initial residual = 0.0215212, Final residual = 6.41614e-07, No Iterations 1
DILUPBiCGStab:  Solving for Uy, Initial residual = 0.0332903, Final residual = 7.47943e-07, No Iterations 1
DILUPBiCGStab:  Solving for O2, Initial residual = 0.0601772, Final residual = 9.98924e-07, No Iterations 1
DILUPBiCGStab:  Solving for H2O, Initial residual = 0, Final residual = 0, No Iterations 0
DILUPBiCGStab:  Solving for CH4, Initial residual = 0, Final residual = 0, No Iterations 0
DILUPBiCGStab:  Solving for CO2, Initial residual = 0, Final residual = 0, No Iterations 0
DILUPBiCGStab:  Solving for h, Initial residual = 0.00353021, Final residual = 2.17939e-07, No Iterations 1
min/max(T) = 300, 300
GAMG:  Solving for p_rgh, Initial residual = 0.00160353, Final residual = 0.000118624, No Iterations 1
diagonal:  Solving for rho, Initial residual = 0, Final residual = 0, No Iterations 0
time step continuity errors : sum local = 5.44226e-09, global = -4.33858e-09, cumulative = -6.98569e-08
GAMG:  Solving for p_rgh, Initial residual = 0.000119399, Final residual = 2.53156e-07, No Iterations 4
diagonal:  Solving for rho, Initial residual = 0, Final residual = 0, No Iterations 0
time step continuity errors : sum local = 1.18582e-11, global = -7.19681e-12, cumulative = -6.9864e-08
DILUPBiCGStab:  Solving for k, Initial residual = 0.0302931, Final residual = 5.32341e-07, No Iterations 1
ExecutionTime = 0.54 s  ClockTime = 1 s

Courant Number mean: 0.00010672 max: 0.000364334
deltaT = 0.05
Time = 1.4

diagonal:  Solving for rho, Initial residual = 0, Final residual = 0, No Iterations 0
PIMPLE: iteration 1
DILUPBiCGStab:  Solving for Ux, Initial residual = 0.0207304, Final residual = 6.40589e-07, No Iterations 1
DILUPBiCGStab:  Solving for Uy, Initial residual = 0.0320724, Final residual = 7.41549e-07, No Iterations 1
DILUPBiCGStab:  Solving for O2, Initial residual = 0.0588206, Final residual = 9.02897e-07, No Iterations 1
DILUPBiCGStab:  Solving for H2O, Initial residual = 0, Final residual = 0, No Iterations 0
DILUPBiCGStab:  Solving for CH4, Initial residual = 0, Final residual = 0, No Iterations 0
DILUPBiCGStab:  Solving for CO2, Initial residual = 0, Final residual = 0, No Iterations 0
DILUPBiCGStab:  Solving for h, Initial residual = 0.00329986, Final residual = 2.09521e-07, No Iterations 1
min/max(T) = 300, 300
GAMG:  Solving for p_rgh, Initial residual = 0.00152592, Final residual = 0.000111739, No Iterations 1
diagonal:  Solving for rho, Initial residual = 0, Final residual = 0, No Iterations 0
time step continuity errors : sum local = 5.1347e-09, global = -4.15354e-09, cumulative = -7.40176e-08
GAMG:  Solving for p_rgh, Initial residual = 0.000112498, Final residual = 9.92571e-07, No Iterations 3
[...]
DILUPBiCGStab:  Solving for CO2, Initial residual = 0, Final residual = 0, No Iterations 0
DILUPBiCGStab:  Solving for h, Initial residual = 0.000629805, Final residual = 9.78122e-08, No Iterations 1
min/max(T) = 300, 300
GAMG:  Solving for p_rgh, Initial residual = 0.000465209, Final residual = 2.68104e-05, No Iterations 1
diagonal:  Solving for rho, Initial residual = 0, Final residual = 0, No Iterations 0
time step continuity errors : sum local = 1.27141e-09, global = -1.22022e-09, cumulative = -1.71284e-07
GAMG:  Solving for p_rgh, Initial residual = 2.67482e-05, Final residual = 8.54338e-07, No Iterations 2
diagonal:  Solving for rho, Initial residual = 0, Final residual = 0, No Iterations 0
time step continuity errors : sum local = 4.05938e-11, global = -2.76497e-11, cumulative = -1.71312e-07
DILUPBiCGStab:  Solving for k, Initial residual = 0.0114148, Final residual = 4.14697e-07, No Iterations 1
ExecutionTime = 1.06 s  ClockTime = 1 s

Courant Number mean: 0.000266135 max: 0.000832725
deltaT = 0.05
Time = 3.5

diagonal:  Solving for rho, Initial residual = 0, Final residual = 0, No Iterations 0
PIMPLE: iteration 1
DILUPBiCGStab:  Solving for Ux, Initial residual = 0.00790996, Final residual = 6.23157e-07, No Iterations 1
DILUPBiCGStab:  Solving for Uy, Initial residual = 0.0126392, Final residual = 6.49814e-07, No Iterations 1
DILUPBiCGStab:  Solving for O2, Initial residual = 0.029701, Final residual = 9.30697e-07, No Iterations 1
DILUPBiCGStab:  Solving for H2O, Initial residual = 0, Final residual = 0, No Iterations 0
DILUPBiCGStab:  Solving for CH4, Initial residual = 0, Final residual = 0, No Iterations 0
DILUPBiCGStab:  Solving for CO2, Initial residual = 0, Final residual = 0, No Iterations 0
DILUPBiCGStab:  Solving for h, Initial residual = 0.000612747, Final residual = 9.43086e-08, No Iterations 1
min/max(T) = 300, 300
GAMG:  Solving for p_rgh, Initial residual = 0.00045228, Final residual = 2.60873e-05, No Iterations 1
diagonal:  Solving for rho, Initial residual = 0, Final residual = 0, No Iterations 0
time step continuity errors : sum local = 1.23758e-09, global = -1.19187e-09, cumulative = -1.72504e-07
GAMG:  Solving for p_rgh, Initial residual = 2.60181e-05, Final residual = 8.27139e-07, No Iterations 2
diagonal:  Solving for rho, Initial residual = 0, Final residual = 0, No Iterations 0
time step continuity errors : sum local = 3.93155e-11, global = -2.68176e-11, cumulative = -1.7253e-07
DILUPBiCGStab:  Solving for k, Initial residual = 0.0112448, Final residual = 4.14051e-07, No Iterations 1
ExecutionTime = 1.07 s  ClockTime = 1 s

Courant Number mean: 0.000269926 max: 0.000843442
deltaT = 0.05
Time = 3.55

diagonal:  Solving for rho, Initial residual = 0, Final residual = 0, No Iterations 0
PIMPLE: iteration 1
DILUPBiCGStab:  Solving for Ux, Initial residual = 0.00779163, Final residual = 6.22806e-07, No Iterations 1
DILUPBiCGStab:  Solving for Uy, Initial residual = 0.0124593, Final residual = 6.49142e-07, No Iterations 1
DILUPBiCGStab:  Solving for O2, Initial residual = 0.0280844, Final residual = 8.80087e-07, No Iterations 1
DILUPBiCGStab:  Solving for H2O, Initial residual = 0, Final residual = 0, No Iterations 0
DILUPBiCGStab:  Solving for CH4, Initial residual = 0, Final residual = 0, No Iterations 0
DILUPBiCGStab:  Solving for CO2, Initial residual = 0, Final residual = 0, No Iterations 0
DILUPBiCGStab:  Solving for h, Initial residual = 0.000601461, Final residual = 9.34535e-08, No Iterations 1
min/max(T) = 300, 300
GAMG:  Solving for p_rgh, Initial residual = 0.000442058, Final residual = 2.54529e-05, No Iterations 1
diagonal:  Solving for rho, Initial residual = 0, Final residual = 0, No Iterations 0
time step continuity errors : sum local = 1.20792e-09, global = -1.16695e-09, cumulative = -1.73697e-07
GAMG:  Solving for p_rgh, Initial residual = 2.5379e-05, Final residual = 8.03738e-07, No Iterations 2
diagonal:  Solving for rho, Initial residual = 0, Final residual = 0, No Iterations 0
time step continuity errors : sum local = 3.82175e-11, global = -2.60982e-11, cumulative = -1.73723e-07
DILUPBiCGStab:  Solving for k, Initial residual = 0.0110795, Final residual = 4.13455e-07, No Iterations 1
ExecutionTime = 1.08 s  ClockTime = 1 s

Courant Number mean: 0.000273716 max: 0.000854146
deltaT = 0.05
Time = 3.6

diagonal:  Solving for rho, Initial residual = 0, Final residual = 0, No Iterations 0
PIMPLE: iteration 1
DILUPBiCGStab:  Solving for Ux, Initial residual = 0.00767646, Final residual = 6.2243e-07, No Iterations 1
DILUPBiCGStab:  Solving for Uy, Initial residual = 0.0122844, Final residual = 6.48485e-07, No Iterations 1
DILUPBiCGStab:  Solving for O2, Initial residual = 0.0280653, Final residual = 9.25124e-07, No Iterations 1
DILUPBiCGStab:  Solving for H2O, Initial residual = 0, Final residual = 0, No Iterations 0
DILUPBiCGStab:  Solving for CH4, Initial residual = 0, Final residual = 0, No Iterations 0
DILUPBiCGStab:  Solving for CO2, Initial residual = 0, Final residual = 0, No Iterations 0
DILUPBiCGStab:  Solving for h, Initial residual = 0.000592843, Final residual = 9.51525e-08, No Iterations 1
min/max(T) = 300, 300
GAMG:  Solving for p_rgh, Initial residual = 0.000433416, Final residual = 2.48761e-05, No Iterations 1
diagonal:  Solving for rho, Initial residual = 0, Final residual = 0, No Iterations 0
time step continuity errors : sum local = 1.18097e-09, global = -1.14457e-09, cumulative = -1.74868e-07
GAMG:  Solving for p_rgh, Initial residual = 2.47926e-05, Final residual = 7.83995e-07, No Iterations 2
diagonal:  Solving for rho, Initial residual = 0, Final residual = 0, No Iterations 0
time step continuity errors : sum local = 3.72909e-11, global = -2.54687e-11, cumulative = -1.74893e-07
DILUPBiCGStab:  Solving for k, Initial residual = 0.0109188, Final residual = 4.12909e-07, No Iterations 1
ExecutionTime = 1.09 s  ClockTime = 1 s

Courant Number mean: 0.000277507 max: 0.000864839
deltaT = 0.05
Time = 3.65

diagonal:  Solving for rho, Initial residual = 0, Final residual = 0, No Iterations 0
PIMPLE: iteration 1
DILUPBiCGStab:  Solving for Ux, Initial residual = 0.00756436, Final residual = 6.22031e-07, No Iterations 1
DILUPBiCGStab:  Solving for Uy, Initial residual = 0.0121144, Final residual = 6.47841e-07, No Iterations 1
DILUPBiCGStab:  Solving for O2, Initial residual = 0.0276657, Final residual = 8.89235e-07, No Iterations 1
DILUPBiCGStab:  Solving for H2O, Initial residual = 0, Final residual = 0, No Iterations 0
DILUPBiCGStab:  Solving for CH4, Initial residual = 0, Final residual = 0, No Iterations 0
DILUPBiCGStab:  Solving for CO2, Initial residual = 0, Final residual = 0, No Iterations 0
DILUPBiCGStab:  Solving for h, Initial residual = 0.000584826, Final residual = 9.22841e-08, No Iterations 1
min/max(T) = 300, 300
GAMG:  Solving for p_rgh, Initial residual = 0.000425688, Final residual = 2.43336e-05, No Iterations 1
diagonal:  Solving for rho, Initial residual = 0, Final residual = 0, No Iterations 0
time step continuity errors : sum local = 1.15561e-09, global = -1.12166e-09, cumulative = -1.76015e-07
GAMG:  Solving for p_rgh, Initial residual = 2.42381e-05, Final residual = 7.62999e-07, No Iterations 2
diagonal:  Solving for rho, Initial residual = 0, Final residual = 0, No Iterations 0
time step continuity errors : sum local = 3.63043e-11, global = -2.48082e-11, cumulative = -1.7604e-07
DILUPBiCGStab:  Solving for k, Initial residual = 0.0107626, Final residual = 4.12409e-07, No Iterations 1
ExecutionTime = 1.1 s  ClockTime = 1 s

Courant Number mean: 0.000281296 max: 0.00087552
deltaT = 0.05
Time = 3.7

diagonal:  Solving for rho, Initial residual = 0, Final residual = 0, No Iterations 0
PIMPLE: iteration 1
DILUPBiCGStab:  Solving for Ux, Initial residual = 0.00745524, Final residual = 6.21612e-07, No Iterations 1
DILUPBiCGStab:  Solving for Uy, Initial residual = 0.011949, Final residual = 6.47215e-07, No Iterations 1
DILUPBiCGStab:  Solving for O2, Initial residual = 0.0281689, Final residual = 1.09139e-06, No Iterations 1
DILUPBiCGStab:  Solving for H2O, Initial residual = 0, Final residual = 0, No Iterations 0
DILUPBiCGStab:  Solving for CH4, Initial residual = 0, Final residual = 0, No Iterations 0
DILUPBiCGStab:  Solving for CO2, Initial residual = 0, Final residual = 0, No Iterations 0
DILUPBiCGStab:  Solving for h, Initial residual = 0.000576965, Final residual = 9.35941e-08, No Iterations 1
min/max(T) = 300, 300
GAMG:  Solving for p_rgh, Initial residual = 0.00041857, Final residual = 2.38192e-05, No Iterations 1
diagonal:  Solving for rho, Initial residual = 0, Final residual = 0, No Iterations 0
time step continuity errors : sum local = 1.13156e-09, global = -1.0989e-09, cumulative = -1.77139e-07
GAMG:  Solving for p_rgh, Initial residual = 2.37111e-05, Final residual = 7.43263e-07, No Iterations 2
diagonal:  Solving for rho, Initial residual = 0, Final residual = 0, No Iterations 0
time step continuity errors : sum local = 3.53772e-11, global = -2.41716e-11, cumulative = -1.77163e-07
DILUPBiCGStab:  Solving for k, Initial residual = 0.0106106, Final residual = 4.11956e-07, No Iterations 1
ExecutionTime = 1.12 s  ClockTime = 1 s

Courant Number mean: 0.000285086 max: 0.000886191
deltaT = 0.05
Time = 3.75

diagonal:  Solving for rho, Initial residual = 0, Final residual = 0, No Iterations 0
PIMPLE: iteration 1
DILUPBiCGStab:  Solving for Ux, Initial residual = 0.00734901, Final residual = 6.21175e-07, No Iterations 1
DILUPBiCGStab:  Solving for Uy, Initial residual = 0.011788, Final residual = 6.46603e-07, No Iterations 1
DILUPBiCGStab:  Solving for O2, Initial residual = 0.0268413, Final residual = 9.20852e-07, No Iterations 1
DILUPBiCGStab:  Solving for H2O, Initial residual = 0, Final residual = 0, No Iterations 0
DILUPBiCGStab:  Solving for CH4, Initial residual = 0, Final residual = 0, No Iterations 0
DILUPBiCGStab:  Solving for CO2, Initial residual = 0, Final residual = 0, No Iterations 0
Radiation solver iter: 0
GAMG:  Solving for ILambda_0_0, Initial residual = 0.00593777, Final residual = 1.08632e-09, No Iterations 1
GAMG:  Solving for ILambda_1_0, Initial residual = 0.00605975, Final residual = 8.8508e-10, No Iterations 1
GAMG:  Solving for ILambda_2_0, Initial residual = 0.0062133, Final residual = 0.000154507, No Iterations 1
GAMG:  Solving for ILambda_3_0, Initial residual = 0.00594445, Final residual = 0.000117163, No Iterations 1
GAMG:  Solving for ILambda_4_0, Initial residual = 0.00583367, Final residual = 1.15619e-09, No Iterations 1
GAMG:  Solving for ILambda_5_0, Initial residual = 0.0060488, Final residual = 9.04545e-10, No Iterations 1
GAMG:  Solving for ILambda_6_0, Initial residual = 0.00623011, Final residual = 0.000163568, No Iterations 1
GAMG:  Solving for ILambda_7_0, Initial residual = 0.00606393, Final residual = 0.000127455, No Iterations 1
DILUPBiCGStab:  Solving for h, Initial residual = 0.000569696, Final residual = 9.04594e-08, No Iterations 1
min/max(T) = 300, 300
GAMG:  Solving for p_rgh, Initial residual = 0.000411966, Final residual = 2.33297e-05, No Iterations 1
diagonal:  Solving for rho, Initial residual = 0, Final residual = 0, No Iterations 0
time step continuity errors : sum local = 1.10868e-09, global = -1.07669e-09, cumulative = -1.7824e-07
GAMG:  Solving for p_rgh, Initial residual = 2.32126e-05, Final residual = 7.24395e-07, No Iterations 2
diagonal:  Solving for rho, Initial residual = 0, Final residual = 0, No Iterations 0
time step continuity errors : sum local = 3.44904e-11, global = -2.35549e-11, cumulative = -1.78263e-07
DILUPBiCGStab:  Solving for k, Initial residual = 0.0104626, Final residual = 4.11518e-07, No Iterations 1
ExecutionTime = 1.13 s  ClockTime = 1 s

Courant Number mean: 0.000288875 max: 0.000896851
deltaT = 0.05
Time = 3.8

diagonal:  Solving for rho, Initial residual = 0, Final residual = 0, No Iterations 0
PIMPLE: iteration 1
DILUPBiCGStab:  Solving for Ux, Initial residual = 0.00724556, Final residual = 6.20719e-07, No Iterations 1
DILUPBiCGStab:  Solving for Uy, Initial residual = 0.0116313, Final residual = 6.46006e-07, No Iterations 1
DILUPBiCGStab:  Solving for O2, Initial residual = 0.0279471, Final residual = 9.5095e-07, No Iterations 1
DILUPBiCGStab:  Solving for H2O, Initial residual = 0, Final residual = 0, No Iterations 0
DILUPBiCGStab:  Solving for CH4, Initial residual = 0, Final residual = 0, No Iterations 0
DILUPBiCGStab:  Solving for CO2, Initial residual = 0, Final residual = 0, No Iterations 0
DILUPBiCGStab:  Solving for h, Initial residual = 0.00056225, Final residual = 9.21092e-08, No Iterations 1
min/max(T) = 300, 300
GAMG:  Solving for p_rgh, Initial residual = 0.000405425, Final residual = 2.28623e-05, No Iterations 1
diagonal:  Solving for rho, Initial residual = 0, Final residual = 0, No Iterations 0
time step continuity errors : sum local = 1.0868e-09, global = -1.05499e-09, cumulative = -1.79318e-07
GAMG:  Solving for p_rgh, Initial residual = 2.27372e-05, Final residual = 7.07071e-07, No Iterations 2
diagonal:  Solving for rho, Initial residual = 0, Final residual = 0, No Iterations 0
time step continuity errors : sum local = 3.36752e-11, global = -2.29763e-11, cumulative = -1.79341e-07
DILUPBiCGStab:  Solving for k, Initial residual = 0.0103185, Final residual = 4.11116e-07, No Iterations 1
ExecutionTime = 1.14 s  ClockTime = 1 s

Courant Number mean: 0.000292664 max: 0.000907502
deltaT = 0.05
Time = 3.85

diagonal:  Solving for rho, Initial residual = 0, Final residual = 0, No Iterations 0
PIMPLE: iteration 1
DILUPBiCGStab:  Solving for Ux, Initial residual = 0.00714487, Final residual = 6.20248e-07, No Iterations 1
DILUPBiCGStab:  Solving for Uy, Initial residual = 0.0114788, Final residual = 6.45425e-07, No Iterations 1
DILUPBiCGStab:  Solving for O2, Initial residual = 0.0253272, Final residual = 9.0378e-07, No Iterations 1
DILUPBiCGStab:  Solving for H2O, Initial residual = 0, Final residual = 0, No Iterations 0
DILUPBiCGStab:  Solving for CH4, Initial residual = 0, Final residual = 0, No Iterations 0
DILUPBiCGStab:  Solving for CO2, Initial residual = 0, Final residual = 0, No Iterations 0
DILUPBiCGStab:  Solving for h, Initial residual = 0.000555416, Final residual = 8.85747e-08, No Iterations 1
min/max(T) = 300, 300
GAMG:  Solving for p_rgh, Initial residual = 0.000399008, Final residual = 2.24062e-05, No Iterations 1
diagonal:  Solving for rho, Initial residual = 0, Final residual = 0, No Iterations 0
time step continuity errors : sum local = 1.06545e-09, global = -1.03345e-09, cumulative = -1.80375e-07
GAMG:  Solving for p_rgh, Initial residual = 2.22753e-05, Final residual = 6.90974e-07, No Iterations 2
diagonal:  Solving for rho, Initial residual = 0, Final residual = 0, No Iterations 0
time step continuity errors : sum local = 3.29183e-11, global = -2.24274e-11, cumulative = -1.80397e-07
DILUPBiCGStab:  Solving for k, Initial residual = 0.0101782, Final residual = 4.10377e-07, No Iterations 1
ExecutionTime = 1.15 s  ClockTime = 1 s

Courant Number mean: 0.000296452 max: 0.000918144
deltaT = 0.05
Time = 3.9

diagonal:  Solving for rho, Initial residual = 0, Final residual = 0, No Iterations 0
PIMPLE: iteration 1
DILUPBiCGStab:  Solving for Ux, Initial residual = 0.00704686, Final residual = 6.19764e-07, No Iterations 1
DILUPBiCGStab:  Solving for Uy, Initial residual = 0.0113301, Final residual = 6.44859e-07, No Iterations 1
DILUPBiCGStab:  Solving for O2, Initial residual = 0.0261933, Final residual = 1.00482e-06, No Iterations 1
DILUPBiCGStab:  Solving for H2O, Initial residual = 0, Final residual = 0, No Iterations 0
DILUPBiCGStab:  Solving for CH4, Initial residual = 0, Final residual = 0, No Iterations 0
DILUPBiCGStab:  Solving for CO2, Initial residual = 0, Final residual = 0, No Iterations 0
DILUPBiCGStab:  Solving for h, Initial residual = 0.000548645, Final residual = 8.69412e-08, No Iterations 1
min/max(T) = 300, 300
GAMG:  Solving for p_rgh, Initial residual = 0.000392444, Final residual = 2.19576e-05, No Iterations 1
diagonal:  Solving for rho, Initial residual = 0, Final residual = 0, No Iterations 0
time step continuity errors : sum local = 1.04443e-09, global = -1.0121e-09, cumulative = -1.81409e-07
GAMG:  Solving for p_rgh, Initial residual = 2.1822e-05, Final residual = 6.75474e-07, No Iterations 2
diagonal:  Solving for rho, Initial residual = 0, Final residual = 0, No Iterations 0
time step continuity errors : sum local = 3.21891e-11, global = -2.18945e-11, cumulative = -1.81431e-07
DILUPBiCGStab:  Solving for k, Initial residual = 0.0100414, Final residual = 4.09662e-07, No Iterations 1
ExecutionTime = 1.17 s  ClockTime = 1 s

Courant Number mean: 0.000300241 max: 0.000928777
deltaT = 0.05
Time = 3.95

diagonal:  Solving for rho, Initial residual = 0, Final residual = 0, No Iterations 0
PIMPLE: iteration 1
DILUPBiCGStab:  Solving for Ux, Initial residual = 0.00695146, Final residual = 6.1927e-07, No Iterations 1
DILUPBiCGStab:  Solving for Uy, Initial residual = 0.0111853, Final residual = 6.4431e-07, No Iterations 1
DILUPBiCGStab:  Solving for O2, Initial residual = 0.025307, Final residual = 9.13104e-07, No Iterations 1
DILUPBiCGStab:  Solving for H2O, Initial residual = 0, Final residual = 0, No Iterations 0
DILUPBiCGStab:  Solving for CH4, Initial residual = 0, Final residual = 0, No Iterations 0
DILUPBiCGStab:  Solving for CO2, Initial residual = 0, Final residual = 0, No Iterations 0
DILUPBiCGStab:  Solving for h, Initial residual = 0.000541834, Final residual = 8.49463e-08, No Iterations 1
min/max(T) = 300, 300
GAMG:  Solving for p_rgh, Initial residual = 0.000385879, Final residual = 2.15044e-05, No Iterations 1
diagonal:  Solving for rho, Initial residual = 0, Final residual = 0, No Iterations 0
time step continuity errors : sum local = 1.02318e-09, global = -9.90252e-10, cumulative = -1.82421e-07
GAMG:  Solving for p_rgh, Initial residual = 2.13658e-05, Final residual = 6.59899e-07, No Iterations 2
diagonal:  Solving for rho, Initial residual = 0, Final residual = 0, No Iterations 0
time step continuity errors : sum local = 3.1456e-11, global = -2.13602e-11, cumulative = -1.82443e-07
DILUPBiCGStab:  Solving for k, Initial residual = 0.00990814, Final residual = 4.08961e-07, No Iterations 1
ExecutionTime = 1.18 s  ClockTime = 1 s

Courant Number mean: 0.000304028 max: 0.000939402
deltaT = 0.05
Time = 4

diagonal:  Solving for rho, Initial residual = 0, Final residual = 0, No Iterations 0
PIMPLE: iteration 1
DILUPBiCGStab:  Solving for Ux, Initial residual = 0.00685855, Final residual = 6.18766e-07, No Iterations 1
DILUPBiCGStab:  Solving for Uy, Initial residual = 0.0110441, Final residual = 6.43777e-07, No Iterations 1
DILUPBiCGStab:  Solving for O2, Initial residual = 0.0256637, Final residual = 9.3612e-07, No Iterations 1
DILUPBiCGStab:  Solving for H2O, Initial residual = 0, Final residual = 0, No Iterations 0
DILUPBiCGStab:  Solving for CH4, Initial residual = 0, Final residual = 0, No Iterations 0
DILUPBiCGStab:  Solving for CO2, Initial residual = 0, Final residual = 0, No Iterations 0
DILUPBiCGStab:  Solving for h, Initial residual = 0.000534877, Final residual = 8.48893e-08, No Iterations 1
min/max(T) = 300, 300
GAMG:  Solving for p_rgh, Initial residual = 0.000379497, Final residual = 2.10537e-05, No Iterations 1
diagonal:  Solving for rho, Initial residual = 0, Final residual = 0, No Iterations 0
time step continuity errors : sum local = 1.00202e-09, global = -9.68545e-10, cumulative = -1.83411e-07
GAMG:  Solving for p_rgh, Initial residual = 2.09128e-05, Final residual = 6.44657e-07, No Iterations 2
diagonal:  Solving for rho, Initial residual = 0, Final residual = 0, No Iterations 0
time step continuity errors : sum local = 3.07381e-11, global = -2.08405e-11, cumulative = -1.83432e-07
DILUPBiCGStab:  Solving for k, Initial residual = 0.0097782, Final residual = 4.08278e-07, No Iterations 1
ExecutionTime = 1.19 s  ClockTime = 1 s

End

Finalising parallel run
